@<TRIPOS>MOLECULE
Bergenina
 23 25 0 0 0
SMALL
GASTEIGER
****

@<TRIPOS>ATOM
      1 C           0.0000   -2.0000    0.0000 C.3     1  UNL1        0.2528
      2 O           0.8660   -1.5000    0.0000 O.3     1  UNL1       -0.4652
      3 C           0.8660   -0.5000    0.0000 C.ar    1  UNL1        0.2159
      4 C           1.7321    0.0000    0.0000 C.ar    1  UNL1        0.2327
      5 O           2.5981   -0.5000    0.0000 O.3     1  UNL1       -0.2832
      6 C           1.7321    1.0000    0.0000 C.ar    1  UNL1        0.0516
      7 C           0.8660    1.5000    0.0000 C.ar    1  UNL1        0.0805
      8 C           0.8660    2.5000    0.0000 C.2     1  UNL1        0.3412
      9 O           1.7321    3.0000    0.0000 O.2     1  UNL1       -0.2449
     10 O          -0.0000    3.0000    0.0000 O.3     1  UNL1       -0.4435
     11 C          -0.8660    2.5000    0.0000 C.3     1  UNL1        0.2330
     12 C          -1.7321    3.0000    0.0000 C.3     1  UNL1        0.2271
     13 O          -1.7321    4.0000    0.0000 O.3     1  UNL1       -0.2163
     14 C          -2.5981    2.5000    0.0000 C.3     1  UNL1        0.2153
     15 O          -3.4641    3.0000    0.0000 O.3     1  UNL1       -0.2176
     16 C          -2.5981    1.5000    0.0000 C.3     1  UNL1        0.1814
     17 C          -3.4641    1.0000    0.0000 C.3     1  UNL1        0.2141
     18 O          -4.3301    1.5000    0.0000 O.3     1  UNL1       -0.2176
     19 O          -1.7321    1.0000    0.0000 O.3     1  UNL1       -0.3450
     20 C          -0.8660    1.5000    0.0000 C.3     1  UNL1        0.1834
     21 C          -0.0000    1.0000    0.0000 C.ar    1  UNL1        0.0566
     22 C           0.0000    0.0000    0.0000 C.ar    1  UNL1        0.2311
     23 O          -0.8660   -0.5000    0.0000 O.3     1  UNL1       -0.2835
@<TRIPOS>BOND
     1     1     2    1
     2     2     3    1
     3     3    22   ar
     4     3     4   ar
     5     4     5    1
     6     4     6   ar
     7     6     7   ar
     8     7    21   ar
     9     7     8    1
    10     8     9    2
    11     8    10    1
    12    11    10    1
    13    11    12    1
    14    11    20    1
    15    12    13    1
    16    12    14    1
    17    14    15    1
    18    14    16    1
    19    16    17    1
    20    16    19    1
    21    17    18    1
    22    20    19    1
    23    20    21    1
    24    21    22   ar
    25    22    23    1
@<TRIPOS>MOLECULE
4-(3,5-dinitro benzoato) de bergenina (ACD5b I)
 37 40 0 0 0
SMALL
GASTEIGER
****

@<TRIPOS>ATOM
      1 C          -0.0000    2.0000    0.0000 C.3     1  UNL1        0.2528
      2 O          -0.8660    1.5000    0.0000 O.3     1  UNL1       -0.4653
      3 C          -0.8660    0.5000    0.0000 C.ar    1  UNL1        0.2116
      4 C          -1.7321   -0.0000    0.0000 C.ar    1  UNL1        0.1858
      5 O          -2.5981    0.5000    0.0000 O.3     1  UNL1       -0.4178
      6 C          -3.4641   -0.0000    0.0000 C.2     1  UNL1        0.3462
      7 O          -3.4641   -1.0000    0.0000 O.2     1  UNL1       -0.2445
      8 C          -4.3301    0.5000    0.0000 C.ar    1  UNL1        0.0882
      9 C          -5.1962   -0.0000    0.0000 C.ar    1  UNL1        0.0821
     10 C          -6.0622    0.5000    0.0000 C.ar    1  UNL1        0.2964
     11 C          -6.0622    1.5000    0.0000 C.ar    1  UNL1        0.1503
     12 C          -5.1962    2.0000    0.0000 C.ar    1  UNL1        0.2964
     13 C          -4.3301    1.5000    0.0000 C.ar    1  UNL1        0.0821
     14 N          -5.1962    3.0000    0.0000 N.pl3   1  UNL1        0.0811
     15 O          -6.0622    3.5000    0.0000 O.co2   1  UNL1       -0.5760
     16 O          -4.3301    3.5000    0.0000 O.2     1  UNL1        0.0415
     17 N          -6.9282   -0.0000    0.0000 N.pl3   1  UNL1        0.0811
     18 O          -6.9282   -1.0000    0.0000 O.co2   1  UNL1       -0.5760
     19 O          -7.7942    0.5000    0.0000 O.2     1  UNL1        0.0415
     20 C          -1.7321   -1.0000    0.0000 C.ar    1  UNL1        0.0472
     21 C          -0.8660   -1.5000    0.0000 C.ar    1  UNL1        0.0804
     22 C          -0.8660   -2.5000    0.0000 C.2     1  UNL1        0.3412
     23 O          -1.7321   -3.0000    0.0000 O.2     1  UNL1       -0.2449
     24 O           0.0000   -3.0000    0.0000 O.3     1  UNL1       -0.4435
     25 C           0.8660   -2.5000    0.0000 C.3     1  UNL1        0.2330
     26 C           1.7321   -3.0000    0.0000 C.3     1  UNL1        0.2271
     27 O           1.7321   -4.0000    0.0000 O.3     1  UNL1       -0.2163
     28 C           2.5981   -2.5000    0.0000 C.3     1  UNL1        0.2153
     29 O           3.4641   -3.0000    0.0000 O.3     1  UNL1       -0.2176
     30 C           2.5981   -1.5000    0.0000 C.3     1  UNL1        0.1814
     31 C           3.4641   -1.0000    0.0000 C.3     1  UNL1        0.2141
     32 O           4.3301   -1.5000    0.0000 O.3     1  UNL1       -0.2176
     33 O           1.7321   -1.0000    0.0000 O.3     1  UNL1       -0.3450
     34 C           0.8660   -1.5000    0.0000 C.3     1  UNL1        0.1834
     35 C           0.0000   -1.0000    0.0000 C.ar    1  UNL1        0.0566
     36 C           0.0000   -0.0000    0.0000 C.ar    1  UNL1        0.2309
     37 O           0.8660    0.5000    0.0000 O.3     1  UNL1       -0.2835
@<TRIPOS>UNITY_ATOM_ATTR
14 1
charge 1
15 1
charge -1
17 1
charge 1
18 1
charge -1
@<TRIPOS>BOND
     1     1     2    1
     2     2     3    1
     3     3    36   ar
     4     3     4   ar
     5     4     5    1
     6     4    20   ar
     7     5     6    1
     8     6     7    2
     9     6     8    1
    10     8    13   ar
    11     8     9   ar
    12     9    10   ar
    13    10    11   ar
    14    10    17    1
    15    11    12   ar
    16    12    13   ar
    17    12    14    1
    18    14    15    1
    19    14    16    2
    20    17    18    1
    21    17    19    2
    22    20    21   ar
    23    21    35   ar
    24    21    22    1
    25    22    23    2
    26    22    24    1
    27    25    24    1
    28    25    26    1
    29    25    34    1
    30    26    27    1
    31    26    28    1
    32    28    29    1
    33    28    30    1
    34    30    31    1
    35    30    33    1
    36    31    32    1
    37    34    33    1
    38    34    35    1
    39    35    36   ar
    40    36    37    1
@<TRIPOS>MOLECULE
*****
 51 55 0 0 0
SMALL
GASTEIGER
****

@<TRIPOS>ATOM
      1 C          -4.3301   -0.5000    0.0000 C.3     1  UNL1        0.2528
      2 O          -3.4641   -0.0000    0.0000 O.3     1  UNL1       -0.4654
      3 C          -3.4641    1.0000    0.0000 C.ar    1  UNL1        0.2072
      4 C          -4.3301    1.5000    0.0000 C.ar    1  UNL1        0.1857
      5 O          -5.1962    1.0000    0.0000 O.3     1  UNL1       -0.4178
      6 C          -6.0622    1.5000    0.0000 C.2     1  UNL1        0.3462
      7 O          -6.0622    2.5000    0.0000 O.2     1  UNL1       -0.2445
      8 C          -6.9282    1.0000    0.0000 C.ar    1  UNL1        0.0882
      9 C          -7.7942    1.5000    0.0000 C.ar    1  UNL1        0.0821
     10 C          -8.6603    1.0000    0.0000 C.ar    1  UNL1        0.2964
     11 C          -8.6603   -0.0000    0.0000 C.ar    1  UNL1        0.1503
     12 C          -7.7942   -0.5000    0.0000 C.ar    1  UNL1        0.2964
     13 C          -6.9282   -0.0000    0.0000 C.ar    1  UNL1        0.0821
     14 N          -7.7942   -1.5000    0.0000 N.pl3   1  UNL1        0.0811
     15 O          -8.6603   -2.0000    0.0000 O.co2   1  UNL1       -0.5760
     16 O          -6.9282   -2.0000    0.0000 O.2     1  UNL1        0.0415
     17 N          -9.5263    1.5000    0.0000 N.pl3   1  UNL1        0.0811
     18 O          -9.5263    2.5000    0.0000 O.co2   1  UNL1       -0.5760
     19 O         -10.3923    1.0000    0.0000 O.2     1  UNL1        0.0415
     20 C          -4.3301    2.5000    0.0000 C.ar    1  UNL1        0.0472
     21 C          -3.4641    3.0000    0.0000 C.ar    1  UNL1        0.0802
     22 C          -3.4641    4.0000    0.0000 C.2     1  UNL1        0.3412
     23 O          -4.3301    4.5000    0.0000 O.2     1  UNL1       -0.2449
     24 O          -2.5981    4.5000    0.0000 O.3     1  UNL1       -0.4435
     25 C          -1.7321    4.0000    0.0000 C.3     1  UNL1        0.2330
     26 C          -0.8660    4.5000    0.0000 C.3     1  UNL1        0.2271
     27 O          -0.8660    5.5000    0.0000 O.3     1  UNL1       -0.2163
     28 C          -0.0000    4.0000    0.0000 C.3     1  UNL1        0.2153
     29 O           0.8660    4.5000    0.0000 O.3     1  UNL1       -0.2176
     30 C           0.0000    3.0000    0.0000 C.3     1  UNL1        0.1814
     31 C           0.8660    2.5000    0.0000 C.3     1  UNL1        0.2141
     32 O           1.7321    3.0000    0.0000 O.3     1  UNL1       -0.2176
     33 O          -0.8660    2.5000    0.0000 O.3     1  UNL1       -0.3450
     34 C          -1.7321    3.0000    0.0000 C.3     1  UNL1        0.1833
     35 C          -2.5981    2.5000    0.0000 C.ar    1  UNL1        0.0523
     36 C          -2.5981    1.5000    0.0000 C.ar    1  UNL1        0.1840
     37 O          -1.7321    1.0000    0.0000 O.3     1  UNL1       -0.4180
     38 C          -1.7321   -0.0000    0.0000 C.2     1  UNL1        0.3462
     39 O          -2.5981   -0.5000    0.0000 O.2     1  UNL1       -0.2445
     40 C          -0.8660   -0.5000    0.0000 C.ar    1  UNL1        0.0882
     41 C          -0.8660   -1.5000    0.0000 C.ar    1  UNL1        0.0821
     42 C           0.0000   -2.0000    0.0000 C.ar    1  UNL1        0.2964
     43 C           0.8660   -1.5000    0.0000 C.ar    1  UNL1        0.1503
     44 C           0.8660   -0.5000    0.0000 C.ar    1  UNL1        0.2964
     45 C           0.0000    0.0000    0.0000 C.ar    1  UNL1        0.0821
     46 N           1.7321    0.0000    0.0000 N.pl3   1  UNL1        0.0811
     47 O           2.5981   -0.5000    0.0000 O.co2   1  UNL1       -0.5760
     48 O           1.7321    1.0000    0.0000 O.2     1  UNL1        0.0415
     49 N           0.0000   -3.0000    0.0000 N.pl3   1  UNL1        0.0811
     50 O          -0.8660   -3.5000    0.0000 O.co2   1  UNL1       -0.5760
     51 O           0.8660   -3.5000    0.0000 O.2     1  UNL1        0.0415
@<TRIPOS>UNITY_ATOM_ATTR
14 1
charge 1
15 1
charge -1
17 1
charge 1
18 1
charge -1
46 1
charge 1
47 1
charge -1
49 1
charge 1
50 1
charge -1
@<TRIPOS>BOND
     1     1     2    1
     2     2     3    1
     3     3    36   ar
     4     3     4   ar
     5     4     5    1
     6     4    20   ar
     7     5     6    1
     8     6     7    2
     9     6     8    1
    10     8    13   ar
    11     8     9   ar
    12     9    10   ar
    13    10    11   ar
    14    10    17    1
    15    11    12   ar
    16    12    13   ar
    17    12    14    1
    18    14    15    1
    19    14    16    2
    20    17    18    1
    21    17    19    2
    22    20    21   ar
    23    21    35   ar
    24    21    22    1
    25    22    23    2
    26    22    24    1
    27    25    24    1
    28    25    26    1
    29    25    34    1
    30    26    27    1
    31    26    28    1
    32    28    29    1
    33    28    30    1
    34    30    31    1
    35    30    33    1
    36    31    32    1
    37    34    33    1
    38    34    35    1
    39    35    36   ar
    40    36    37    1
    41    37    38    1
    42    38    39    2
    43    38    40    1
    44    40    45   ar
    45    40    41   ar
    46    41    42   ar
    47    42    43   ar
    48    42    49    1
    49    43    44   ar
    50    44    45   ar
    51    44    46    1
    52    46    47    1
    53    46    48    2
    54    49    50    1
    55    49    51    2
@<TRIPOS>MOLECULE
*****
 34 37 0 0 0
SMALL
GASTEIGER
****

@<TRIPOS>ATOM
      1 C          -0.0000   -2.0000    0.0000 C.3     1  UNL1        0.2528
      2 O           0.8660   -1.5000    0.0000 O.3     1  UNL1       -0.4653
      3 C           0.8660   -0.5000    0.0000 C.ar    1  UNL1        0.2116
      4 C           1.7321   -0.0000    0.0000 C.ar    1  UNL1        0.1858
      5 O           2.5981   -0.5000    0.0000 O.3     1  UNL1       -0.4178
      6 C           3.4641   -0.0000    0.0000 C.2     1  UNL1        0.3460
      7 O           4.3301   -0.5000    0.0000 O.2     1  UNL1       -0.2445
      8 C           3.4641    1.0000    0.0000 C.ar    1  UNL1        0.0821
      9 C           4.3301    1.5000    0.0000 C.ar    1  UNL1        0.0817
     10 C           4.3301    2.5000    0.0000 C.ar    1  UNL1        0.2903
     11 C           3.4641    3.0000    0.0000 C.ar    1  UNL1        0.0753
     12 C           2.5981    2.5000    0.0000 C.ar    1  UNL1        0.0065
     13 C           2.5981    1.5000    0.0000 C.ar    1  UNL1        0.0069
     14 N           5.1962    3.0000    0.0000 N.pl3   1  UNL1        0.0809
     15 O           6.0622    2.5000    0.0000 O.co2   1  UNL1       -0.5760
     16 O           5.1962    4.0000    0.0000 O.2     1  UNL1        0.0415
     17 C           1.7321    1.0000    0.0000 C.ar    1  UNL1        0.0472
     18 C           0.8660    1.5000    0.0000 C.ar    1  UNL1        0.0804
     19 C           0.8660    2.5000    0.0000 C.2     1  UNL1        0.3412
     20 O           1.7321    3.0000    0.0000 O.2     1  UNL1       -0.2449
     21 O           0.0000    3.0000    0.0000 O.3     1  UNL1       -0.4435
     22 C          -0.8660    2.5000    0.0000 C.3     1  UNL1        0.2330
     23 C          -1.7321    3.0000    0.0000 C.3     1  UNL1        0.2271
     24 O          -1.7321    4.0000    0.0000 O.3     1  UNL1       -0.2163
     25 C          -2.5981    2.5000    0.0000 C.3     1  UNL1        0.2153
     26 O          -3.4641    3.0000    0.0000 O.3     1  UNL1       -0.2176
     27 C          -2.5981    1.5000    0.0000 C.3     1  UNL1        0.1814
     28 C          -3.4641    1.0000    0.0000 C.3     1  UNL1        0.2141
     29 O          -4.3301    1.5000    0.0000 O.3     1  UNL1       -0.2176
     30 O          -1.7321    1.0000    0.0000 O.3     1  UNL1       -0.3450
     31 C          -0.8660    1.5000    0.0000 C.3     1  UNL1        0.1834
     32 C           0.0000    1.0000    0.0000 C.ar    1  UNL1        0.0566
     33 C           0.0000    0.0000    0.0000 C.ar    1  UNL1        0.2309
     34 O          -0.8660   -0.5000    0.0000 O.3     1  UNL1       -0.2835
@<TRIPOS>UNITY_ATOM_ATTR
14 1
charge 1
15 1
charge -1
@<TRIPOS>BOND
     1     1     2    1
     2     2     3    1
     3     3    33   ar
     4     3     4   ar
     5     4     5    1
     6     4    17   ar
     7     5     6    1
     8     6     7    2
     9     6     8    1
    10     8    13   ar
    11     8     9   ar
    12     9    10   ar
    13    10    11   ar
    14    10    14    1
    15    11    12   ar
    16    12    13   ar
    17    14    15    1
    18    14    16    2
    19    17    18   ar
    20    18    32   ar
    21    18    19    1
    22    19    20    2
    23    19    21    1
    24    22    21    1
    25    22    23    1
    26    22    31    1
    27    23    24    1
    28    23    25    1
    29    25    26    1
    30    25    27    1
    31    27    28    1
    32    27    30    1
    33    28    29    1
    34    31    30    1
    35    31    32    1
    36    32    33   ar
    37    33    34    1
@<TRIPOS>MOLECULE
*****
 45 49 0 0 0
SMALL
GASTEIGER
****

@<TRIPOS>ATOM
      1 C           1.7321    4.0000    0.0000 C.3     1  UNL1        0.2528
      2 O           1.7321    3.0000    0.0000 O.3     1  UNL1       -0.4654
      3 C           2.5981    2.5000    0.0000 C.ar    1  UNL1        0.2072
      4 C           3.4641    3.0000    0.0000 C.ar    1  UNL1        0.1857
      5 O           3.4641    4.0000    0.0000 O.3     1  UNL1       -0.4178
      6 C           4.3301    4.5000    0.0000 C.2     1  UNL1        0.3460
      7 O           4.3301    5.5000    0.0000 O.2     1  UNL1       -0.2445
      8 C           5.1962    4.0000    0.0000 C.ar    1  UNL1        0.0821
      9 C           6.0622    4.5000    0.0000 C.ar    1  UNL1        0.0817
     10 C           6.9282    4.0000    0.0000 C.ar    1  UNL1        0.2903
     11 C           6.9282    3.0000    0.0000 C.ar    1  UNL1        0.0753
     12 C           6.0622    2.5000    0.0000 C.ar    1  UNL1        0.0065
     13 C           5.1962    3.0000    0.0000 C.ar    1  UNL1        0.0069
     14 N           7.7942    4.5000    0.0000 N.pl3   1  UNL1        0.0809
     15 O           7.7942    5.5000    0.0000 O.co2   1  UNL1       -0.5760
     16 O           8.6603    4.0000    0.0000 O.2     1  UNL1        0.0415
     17 C           4.3301    2.5000    0.0000 C.ar    1  UNL1        0.0472
     18 C           4.3301    1.5000    0.0000 C.ar    1  UNL1        0.0802
     19 C           5.1962    1.0000    0.0000 C.2     1  UNL1        0.3412
     20 O           6.0622    1.5000    0.0000 O.2     1  UNL1       -0.2449
     21 O           5.1962   -0.0000    0.0000 O.3     1  UNL1       -0.4435
     22 C           4.3301   -0.5000    0.0000 C.3     1  UNL1        0.2330
     23 C           4.3301   -1.5000    0.0000 C.3     1  UNL1        0.2271
     24 O           5.1962   -2.0000    0.0000 O.3     1  UNL1       -0.2163
     25 C           3.4641   -2.0000    0.0000 C.3     1  UNL1        0.2153
     26 O           3.4641   -3.0000    0.0000 O.3     1  UNL1       -0.2176
     27 C           2.5981   -1.5000    0.0000 C.3     1  UNL1        0.1814
     28 C           1.7321   -2.0000    0.0000 C.3     1  UNL1        0.2141
     29 O           1.7321   -3.0000    0.0000 O.3     1  UNL1       -0.2176
     30 O           2.5981   -0.5000    0.0000 O.3     1  UNL1       -0.3450
     31 C           3.4641   -0.0000    0.0000 C.3     1  UNL1        0.1833
     32 C           3.4641    1.0000    0.0000 C.ar    1  UNL1        0.0523
     33 C           2.5981    1.5000    0.0000 C.ar    1  UNL1        0.1840
     34 O           1.7321    1.0000    0.0000 O.3     1  UNL1       -0.4181
     35 C           0.8660    1.5000    0.0000 C.2     1  UNL1        0.3460
     36 O           0.8660    2.5000    0.0000 O.2     1  UNL1       -0.2445
     37 C           0.0000    1.0000    0.0000 C.ar    1  UNL1        0.0821
     38 C          -0.8660    1.5000    0.0000 C.ar    1  UNL1        0.0817
     39 C          -1.7321    1.0000    0.0000 C.ar    1  UNL1        0.2903
     40 C          -1.7321    0.0000    0.0000 C.ar    1  UNL1        0.0753
     41 C          -0.8660   -0.5000    0.0000 C.ar    1  UNL1        0.0065
     42 C           0.0000   -0.0000    0.0000 C.ar    1  UNL1        0.0069
     43 N          -2.5981    1.5000    0.0000 N.pl3   1  UNL1        0.0809
     44 O          -2.5981    2.5000    0.0000 O.co2   1  UNL1       -0.5760
     45 O          -3.4641    1.0000    0.0000 O.2     1  UNL1        0.0415
@<TRIPOS>UNITY_ATOM_ATTR
14 1
charge 1
15 1
charge -1
43 1
charge 1
44 1
charge -1
@<TRIPOS>BOND
     1     1     2    1
     2     2     3    1
     3     3    33   ar
     4     3     4   ar
     5     4     5    1
     6     4    17   ar
     7     5     6    1
     8     6     7    2
     9     6     8    1
    10     8    13   ar
    11     8     9   ar
    12     9    10   ar
    13    10    11   ar
    14    10    14    1
    15    11    12   ar
    16    12    13   ar
    17    14    15    1
    18    14    16    2
    19    17    18   ar
    20    18    32   ar
    21    18    19    1
    22    19    20    2
    23    19    21    1
    24    22    21    1
    25    22    23    1
    26    22    31    1
    27    23    24    1
    28    23    25    1
    29    25    26    1
    30    25    27    1
    31    27    28    1
    32    27    30    1
    33    28    29    1
    34    31    30    1
    35    31    32    1
    36    32    33   ar
    37    33    34    1
    38    34    35    1
    39    35    36    2
    40    35    37    1
    41    37    42   ar
    42    37    38   ar
    43    38    39   ar
    44    39    40   ar
    45    39    43    1
    46    40    41   ar
    47    41    42   ar
    48    43    44    1
    49    43    45    2
@<TRIPOS>MOLECULE
*****
 28 31 0 0 0
SMALL
GASTEIGER
****

@<TRIPOS>ATOM
      1 C           1.7796   -3.0933    0.0000 C.3     1  UNL1        0.2528
      2 O           2.6456   -2.5933    0.0000 O.3     1  UNL1       -0.4651
      3 C           2.6456   -1.5933    0.0000 C.ar    1  UNL1        0.2175
      4 C           3.5116   -1.0933    0.0000 C.ar    1  UNL1        0.2312
      5 O           4.3776   -1.5933    0.0000 O.3     1  UNL1       -0.2835
      6 C           3.5116   -0.0933    0.0000 C.ar    1  UNL1        0.0581
      7 C           2.6456    0.4067    0.0000 C.ar    1  UNL1        0.0982
      8 C           2.6456    1.4067    0.0000 C.2     1  UNL1        0.3427
      9 O           1.7796    1.9067    0.0000 O.2     1  UNL1       -0.2448
     10 O           3.5116    1.9067    0.0000 O.3     1  UNL1       -0.4435
     11 C           4.3776    1.4067    0.0000 C.3     1  UNL1        0.2330
     12 C           5.2437    1.9067    0.0000 C.3     1  UNL1        0.2271
     13 O           5.2437    2.9067    0.0000 O.3     1  UNL1       -0.2163
     14 C           6.1097    1.4067    0.0000 C.3     1  UNL1        0.2153
     15 O           6.9757    1.9067    0.0000 O.3     1  UNL1       -0.2176
     16 C           6.1097    0.4067    0.0000 C.3     1  UNL1        0.1814
     17 C           6.9757   -0.0933    0.0000 C.3     1  UNL1        0.2141
     18 O           7.8417    0.4067    0.0000 O.3     1  UNL1       -0.2176
     19 O           5.2437   -0.0933    0.0000 O.3     1  UNL1       -0.3450
     20 C           4.3776    0.4067    0.0000 C.3     1  UNL1        0.1835
     21 C           1.7796   -0.0933    0.0000 C.ar    1  UNL1        0.1326
     22 N           0.9135    0.4067    0.0000 N.ar    1  UNL1       -0.2044
     23 C           0.8090    1.4013    0.0000 C.ar    1  UNL1        0.2017
     24 N          -0.1691    1.6092    0.0000 N.ar    1  UNL1       -0.2004
     25 C          -0.6691    0.7431    0.0000 C.ar    1  UNL1        0.2214
     26 N           0.0000    0.0000    0.0000 N.ar    1  UNL1       -0.1408
     27 C           1.7796   -1.0933    0.0000 C.ar    1  UNL1        0.2502
     28 O           0.9135   -1.5933    0.0000 O.3     1  UNL1       -0.2816
@<TRIPOS>BOND
     1     1     2    1
     2     2     3    1
     3     3    27   ar
     4     3     4   ar
     5     4     5    1
     6     4     6   ar
     7     6    20    1
     8     6     7   ar
     9     7     8    1
    10     7    21   ar
    11     8     9    2
    12     8    10    1
    13    11    10    1
    14    11    12    1
    15    11    20    1
    16    12    13    1
    17    12    14    1
    18    14    15    1
    19    14    16    1
    20    16    17    1
    21    16    19    1
    22    17    18    1
    23    20    19    1
    24    21    22    1
    25    21    27   ar
    26    22    26   ar
    27    22    23   ar
    28    23    24   ar
    29    24    25   ar
    30    25    26   ar
    31    27    28    1
@<TRIPOS>MOLECULE
*****
 35 39 0 0 0
SMALL
GASTEIGER
****

@<TRIPOS>ATOM
      1 C           1.7796   -1.0933    0.0000 C.3     1  UNL1        0.2528
      2 O           2.6456   -1.5933    0.0000 O.3     1  UNL1       -0.4654
      3 C           3.5116   -1.0933    0.0000 C.ar    1  UNL1        0.2058
      4 C           4.3776   -1.5933    0.0000 C.ar    1  UNL1        0.1760
      5 O           4.3776   -2.5933    0.0000 O.3     1  UNL1       -0.4657
      6 C           5.2437   -3.0933    0.0000 C.3     1  UNL1        0.2545
      7 C           6.1097   -2.5933    0.0000 C.ar    1  UNL1        0.1467
      8 C           7.0232   -3.0000    0.0000 C.ar    1  UNL1        0.1441
      9 N           7.6924   -2.2569    0.0000 N.ar    1  UNL1       -0.1257
     10 N           7.1924   -1.3908    0.0000 N.ar    1  UNL1       -0.0422
     11 N           6.2142   -1.5987    0.0000 N.ar    1  UNL1       -0.1277
     12 C           5.2437   -1.0933    0.0000 C.ar    1  UNL1        0.0465
     13 C           5.2437   -0.0933    0.0000 C.ar    1  UNL1        0.0802
     14 C           6.1097    0.4067    0.0000 C.2     1  UNL1        0.3412
     15 O           6.9757   -0.0933    0.0000 O.2     1  UNL1       -0.2449
     16 O           6.1097    1.4067    0.0000 O.3     1  UNL1       -0.4435
     17 C           5.2437    1.9067    0.0000 C.3     1  UNL1        0.2330
     18 C           5.2437    2.9067    0.0000 C.3     1  UNL1        0.2271
     19 O           6.1097    3.4067    0.0000 O.3     1  UNL1       -0.2163
     20 C           4.3776    3.4067    0.0000 C.3     1  UNL1        0.2153
     21 O           4.3776    4.4067    0.0000 O.3     1  UNL1       -0.2176
     22 C           3.5116    2.9067    0.0000 C.3     1  UNL1        0.1814
     23 C           2.6456    3.4067    0.0000 C.3     1  UNL1        0.2141
     24 O           2.6456    4.4067    0.0000 O.3     1  UNL1       -0.2176
     25 O           3.5116    1.9067    0.0000 O.3     1  UNL1       -0.3450
     26 C           4.3776    1.4067    0.0000 C.3     1  UNL1        0.1832
     27 C           4.3776    0.4067    0.0000 C.ar    1  UNL1        0.0517
     28 C           3.5116   -0.0933    0.0000 C.ar    1  UNL1        0.1744
     29 O           2.6456    0.4067    0.0000 O.3     1  UNL1       -0.4659
     30 C           1.7796   -0.0933    0.0000 C.3     1  UNL1        0.2545
     31 C           0.9135    0.4067    0.0000 C.ar    1  UNL1        0.1467
     32 C           0.8090    1.4013    0.0000 C.ar    1  UNL1        0.1441
     33 N          -0.1691    1.6092    0.0000 N.ar    1  UNL1       -0.1257
     34 N          -0.6691    0.7431    0.0000 N.ar    1  UNL1       -0.0422
     35 N           0.0000   -0.0000    0.0000 N.ar    1  UNL1       -0.1277
@<TRIPOS>BOND
     1     1     2    1
     2     2     3    1
     3     3    28   ar
     4     3     4   ar
     5     4     5    1
     6     4    12   ar
     7     5     6    1
     8     6     7    1
     9     7    11   ar
    10     7     8   ar
    11     8     9   ar
    12     9    10   ar
    13    10    11   ar
    14    12    13   ar
    15    13    27   ar
    16    13    14    1
    17    14    15    2
    18    14    16    1
    19    17    16    1
    20    17    18    1
    21    17    26    1
    22    18    19    1
    23    18    20    1
    24    20    21    1
    25    20    22    1
    26    22    23    1
    27    22    25    1
    28    23    24    1
    29    26    25    1
    30    26    27    1
    31    27    28   ar
    32    28    29    1
    33    29    30    1
    34    30    31    1
    35    31    35   ar
    36    31    32   ar
    37    32    33   ar
    38    33    34   ar
    39    34    35   ar
@<TRIPOS>MOLECULE
*****
 25 27 0 0 0
SMALL
GASTEIGER
****

@<TRIPOS>ATOM
      1 C          -0.0000   -2.0000    0.0000 C.3     1  UNL1        0.2528
      2 O           0.8660   -1.5000    0.0000 O.3     1  UNL1       -0.4652
      3 C           0.8660   -0.5000    0.0000 C.ar    1  UNL1        0.2160
      4 C           1.7321    0.0000    0.0000 C.ar    1  UNL1        0.2311
      5 O           2.5981   -0.5000    0.0000 O.3     1  UNL1       -0.2835
      6 C           1.7321    1.0000    0.0000 C.ar    1  UNL1        0.0567
      7 C           0.8660    1.5000    0.0000 C.ar    1  UNL1        0.0836
      8 C           0.8660    2.5000    0.0000 C.2     1  UNL1        0.3413
      9 O           0.0000    3.0000    0.0000 O.2     1  UNL1       -0.2449
     10 O           1.7321    3.0000    0.0000 O.3     1  UNL1       -0.4435
     11 C           2.5981    2.5000    0.0000 C.3     1  UNL1        0.2330
     12 C           3.4641    3.0000    0.0000 C.3     1  UNL1        0.2271
     13 O           3.4641    4.0000    0.0000 O.3     1  UNL1       -0.2163
     14 C           4.3301    2.5000    0.0000 C.3     1  UNL1        0.2153
     15 O           5.1962    3.0000    0.0000 O.3     1  UNL1       -0.2176
     16 C           4.3301    1.5000    0.0000 C.3     1  UNL1        0.1814
     17 C           5.1962    1.0000    0.0000 C.3     1  UNL1        0.2141
     18 O           5.1962   -0.0000    0.0000 O.3     1  UNL1       -0.2176
     19 O           3.4641    1.0000    0.0000 O.3     1  UNL1       -0.3450
     20 C           2.5981    1.5000    0.0000 C.3     1  UNL1        0.1834
     21 C           0.0000    1.0000    0.0000 C.ar    1  UNL1        0.0904
     22 C          -0.8660    1.5000    0.0000 C.2     1  UNL1        0.2377
     23 O          -0.8660    2.5000    0.0000 O.2     1  UNL1       -0.2830
     24 C           0.0000    0.0000    0.0000 C.ar    1  UNL1        0.2358
     25 O          -0.8660   -0.5000    0.0000 O.3     1  UNL1       -0.2831
@<TRIPOS>BOND
     1     1     2    1
     2     2     3    1
     3     3    24   ar
     4     3     4   ar
     5     4     5    1
     6     4     6   ar
     7     6    20    1
     8     6     7   ar
     9     7     8    1
    10     7    21   ar
    11     8     9    2
    12     8    10    1
    13    11    10    1
    14    11    12    1
    15    11    20    1
    16    12    13    1
    17    12    14    1
    18    14    15    1
    19    14    16    1
    20    16    17    1
    21    16    19    1
    22    17    18    1
    23    20    19    1
    24    21    22    1
    25    21    24   ar
    26    22    23    2
    27    24    25    1
@<TRIPOS>MOLECULE
*****
 30 33 0 0 0
SMALL
GASTEIGER
****

@<TRIPOS>ATOM
      1 C          -0.0000    2.0000    0.0000 C.3     1  UNL1        0.2528
      2 O          -0.8660    1.5000    0.0000 O.3     1  UNL1       -0.4652
      3 C          -0.8660    0.5000    0.0000 C.ar    1  UNL1        0.2156
      4 C          -1.7321   -0.0000    0.0000 C.ar    1  UNL1        0.2300
      5 O          -2.5981    0.5000    0.0000 O.3     1  UNL1       -0.2835
      6 C          -1.7321   -1.0000    0.0000 C.ar    1  UNL1        0.0421
      7 C          -2.5981   -1.5000    0.0000 C.3     1  UNL1        0.1028
      8 N          -3.4641   -1.0000    0.0000 N.3     1  UNL1       -0.2646
      9 C          -4.3301   -1.5000    0.0000 C.3     1  UNL1        0.1049
     10 C          -5.1962   -1.0000    0.0000 C.3     1  UNL1        0.1595
     11 O          -5.1962   -0.0000    0.0000 O.3     1  UNL1       -0.3508
     12 C          -4.3301    0.5000    0.0000 C.3     1  UNL1        0.1595
     13 C          -3.4641   -0.0000    0.0000 C.3     1  UNL1        0.1049
     14 C          -0.8660   -1.5000    0.0000 C.ar    1  UNL1        0.0778
     15 C          -0.8660   -2.5000    0.0000 C.2     1  UNL1        0.3410
     16 O          -1.7321   -3.0000    0.0000 O.2     1  UNL1       -0.2449
     17 O           0.0000   -3.0000    0.0000 O.3     1  UNL1       -0.4435
     18 C           0.8660   -2.5000    0.0000 C.3     1  UNL1        0.2330
     19 C           1.7321   -3.0000    0.0000 C.3     1  UNL1        0.2271
     20 O           1.7321   -4.0000    0.0000 O.3     1  UNL1       -0.2163
     21 C           2.5981   -2.5000    0.0000 C.3     1  UNL1        0.2153
     22 O           3.4641   -3.0000    0.0000 O.3     1  UNL1       -0.2176
     23 C           2.5981   -1.5000    0.0000 C.3     1  UNL1        0.1814
     24 C           3.4641   -1.0000    0.0000 C.3     1  UNL1        0.2141
     25 O           4.3301   -1.5000    0.0000 O.3     1  UNL1       -0.2176
     26 O           1.7321   -1.0000    0.0000 O.3     1  UNL1       -0.3450
     27 C           0.8660   -1.5000    0.0000 C.3     1  UNL1        0.1834
     28 C           0.0000   -1.0000    0.0000 C.ar    1  UNL1        0.0564
     29 C           0.0000   -0.0000    0.0000 C.ar    1  UNL1        0.2310
     30 O           0.8660    0.5000    0.0000 O.3     1  UNL1       -0.2835
@<TRIPOS>BOND
     1     1     2    1
     2     2     3    1
     3     3    29   ar
     4     3     4   ar
     5     4     5    1
     6     4     6   ar
     7     6     7    1
     8     6    14   ar
     9     7     8    1
    10     8    13    1
    11     8     9    1
    12     9    10    1
    13    10    11    1
    14    11    12    1
    15    12    13    1
    16    14    28   ar
    17    14    15    1
    18    15    16    2
    19    15    17    1
    20    18    17    1
    21    18    19    1
    22    18    27    1
    23    19    20    1
    24    19    21    1
    25    21    22    1
    26    21    23    1
    27    23    24    1
    28    23    26    1
    29    24    25    1
    30    27    26    1
    31    27    28    1
    32    28    29   ar
    33    29    30    1
@<TRIPOS>MOLECULE
*****
 29 31 0 0 0
SMALL
GASTEIGER
****

@<TRIPOS>ATOM
      1 C           0.0000    2.0000    0.0000 C.3     1  UNL1        0.2528
      2 O          -0.8660    1.5000    0.0000 O.3     1  UNL1       -0.4652
      3 C          -0.8660    0.5000    0.0000 C.ar    1  UNL1        0.2159
      4 C          -1.7321   -0.0000    0.0000 C.ar    1  UNL1        0.2342
      5 O          -2.5981    0.5000    0.0000 O.3     1  UNL1       -0.2832
      6 C          -1.7321   -1.0000    0.0000 C.ar    1  UNL1        0.0705
      7 C          -2.5981   -1.5000    0.0000 C.2     1  UNL1        0.1432
      8 N          -2.5981   -2.5000    0.0000 N.2     1  UNL1       -0.0679
      9 N          -3.4641   -3.0000    0.0000 N.pl3   1  UNL1        0.0570
     10 C          -3.4641   -4.0000    0.0000 C.cat   1  UNL1        0.5604
     11 N          -2.5981   -4.5000    0.0000 N.pl3   1  UNL1        0.1376
     12 N          -4.3301   -4.5000    0.0000 N.pl3   1  UNL1        0.1376
     13 C          -0.8660   -1.5000    0.0000 C.ar    1  UNL1        0.0820
     14 C          -0.8660   -2.5000    0.0000 C.2     1  UNL1        0.3413
     15 O          -1.7321   -3.0000    0.0000 O.2     1  UNL1       -0.2449
     16 O           0.0000   -3.0000    0.0000 O.3     1  UNL1       -0.4435
     17 C           0.8660   -2.5000    0.0000 C.3     1  UNL1        0.2330
     18 C           1.7321   -3.0000    0.0000 C.3     1  UNL1        0.2271
     19 O           1.7321   -4.0000    0.0000 O.3     1  UNL1       -0.2163
     20 C           2.5981   -2.5000    0.0000 C.3     1  UNL1        0.2153
     21 O           3.4641   -3.0000    0.0000 O.3     1  UNL1       -0.2176
     22 C           2.5981   -1.5000    0.0000 C.3     1  UNL1        0.1814
     23 C           3.4641   -1.0000    0.0000 C.3     1  UNL1        0.2141
     24 O           4.3301   -1.5000    0.0000 O.3     1  UNL1       -0.2176
     25 O           1.7321   -1.0000    0.0000 O.3     1  UNL1       -0.3450
     26 C           0.8660   -1.5000    0.0000 C.3     1  UNL1        0.1834
     27 C           0.0000   -1.0000    0.0000 C.ar    1  UNL1        0.0567
     28 C           0.0000   -0.0000    0.0000 C.ar    1  UNL1        0.2311
     29 O           0.8660    0.5000    0.0000 O.3     1  UNL1       -0.2835
@<TRIPOS>BOND
     1     1     2    1
     2     2     3    1
     3     3    28   ar
     4     3     4   ar
     5     4     5    1
     6     4     6   ar
     7     6     7    1
     8     6    13   ar
     9     7     8    2
    10     8     9    1
    11     9    10    1
    12    10    11    1
    13    10    12    2
    14    13    27   ar
    15    13    14    1
    16    14    15    2
    17    14    16    1
    18    17    16    1
    19    17    18    1
    20    17    26    1
    21    18    19    1
    22    18    20    1
    23    20    21    1
    24    20    22    1
    25    22    23    1
    26    22    25    1
    27    23    24    1
    28    26    25    1
    29    26    27    1
    30    27    28   ar
    31    28    29    1
@<TRIPOS>MOLECULE
*****
 48 50 0 0 0
SMALL
GASTEIGER
****

@<TRIPOS>ATOM
      1 C           1.7321    2.0000    0.0000 C.3     1  UNL1        0.2528
      2 O           0.8660    1.5000    0.0000 O.3     1  UNL1       -0.4654
      3 C           0.8660    0.5000    0.0000 C.ar    1  UNL1        0.2072
      4 C           1.7321   -0.0000    0.0000 C.ar    1  UNL1        0.1854
      5 O           2.5981    0.5000    0.0000 O.3     1  UNL1       -0.4197
      6 C           3.4641   -0.0000    0.0000 C.2     1  UNL1        0.3421
      7 O           3.4641   -1.0000    0.0000 O.2     1  UNL1       -0.2478
      8 C           4.3301    0.5000    0.0000 C.3     1  UNL1        0.2048
      9 N           4.3301    1.5000    0.0000 N.am    1  UNL1       -0.2605
     10 C           5.1962    2.0000    0.0000 C.3     1  UNL1        0.1911
     11 C           6.0622    1.5000    0.0000 C.3     1  UNL1        0.1001
     12 S           6.9282    2.0000    0.0000 S.3     1  UNL1       -0.0797
     13 C           5.1962    3.0000    0.0000 C.2     1  UNL1        0.3834
     14 O           6.0622    3.5000    0.0000 O.co2   1  UNL1       -0.2438
     15 O           4.3301    3.5000    0.0000 O.co2   1  UNL1       -0.2438
     16 C           3.4641    2.0000    0.0000 C.2     1  UNL1        0.2269
     17 C           3.4641    3.0000    0.0000 C.3     1  UNL1        0.0949
     18 O           2.5981    1.5000    0.0000 O.2     1  UNL1       -0.2748
     19 C           1.7321   -1.0000    0.0000 C.ar    1  UNL1        0.0472
     20 C           0.8660   -1.5000    0.0000 C.ar    1  UNL1        0.0802
     21 C           0.8660   -2.5000    0.0000 C.2     1  UNL1        0.3412
     22 O           1.7321   -3.0000    0.0000 O.2     1  UNL1       -0.2449
     23 O          -0.0000   -3.0000    0.0000 O.3     1  UNL1       -0.4435
     24 C          -0.8660   -2.5000    0.0000 C.3     1  UNL1        0.2330
     25 C          -1.7321   -3.0000    0.0000 C.3     1  UNL1        0.2271
     26 O          -1.7321   -4.0000    0.0000 O.3     1  UNL1       -0.2163
     27 C          -2.5981   -2.5000    0.0000 C.3     1  UNL1        0.2153
     28 O          -3.4641   -3.0000    0.0000 O.3     1  UNL1       -0.2176
     29 C          -2.5981   -1.5000    0.0000 C.3     1  UNL1        0.1814
     30 C          -3.4641   -1.0000    0.0000 C.3     1  UNL1        0.2141
     31 O          -4.3301   -1.5000    0.0000 O.3     1  UNL1       -0.2176
     32 O          -1.7321   -1.0000    0.0000 O.3     1  UNL1       -0.3450
     33 C          -0.8660   -1.5000    0.0000 C.3     1  UNL1        0.1833
     34 C          -0.0000   -1.0000    0.0000 C.ar    1  UNL1        0.0524
     35 C           0.0000   -0.0000    0.0000 C.ar    1  UNL1        0.1853
     36 O          -0.8660    0.5000    0.0000 O.3     1  UNL1       -0.4068
     37 C          -0.8660    1.5000    0.0000 C.2     1  UNL1        0.4158
     38 O           0.0000    2.0000    0.0000 O.2     1  UNL1       -0.2253
     39 N          -1.7321    2.0000    0.0000 N.am    1  UNL1       -0.1853
     40 C          -1.7321    3.0000    0.0000 C.3     1  UNL1        0.1999
     41 C          -0.8660    3.5000    0.0000 C.3     1  UNL1        0.1006
     42 S          -0.8660    4.5000    0.0000 S.3     1  UNL1       -0.0797
     43 C          -2.5981    3.5000    0.0000 C.2     1  UNL1        0.3839
     44 O          -2.5981    4.5000    0.0000 O.co2   1  UNL1       -0.2438
     45 O          -3.4641    3.0000    0.0000 O.co2   1  UNL1       -0.2438
     46 C          -2.5981    1.5000    0.0000 C.2     1  UNL1        0.2348
     47 C          -3.4641    2.0000    0.0000 C.3     1  UNL1        0.0954
     48 O          -2.5981    0.5000    0.0000 O.2     1  UNL1       -0.2743
@<TRIPOS>BOND
     1     1     2    1
     2     2     3    1
     3     3    35   ar
     4     3     4   ar
     5     4     5    1
     6     4    19   ar
     7     5     6    1
     8     6     7    2
     9     6     8    1
    10     8     9    1
    11     9    10    1
    12     9    16   am
    13    10    11    1
    14    10    13    1
    15    11    12    1
    16    13    14   ar
    17    13    15   ar
    18    16    17    1
    19    16    18    2
    20    19    20   ar
    21    20    34   ar
    22    20    21    1
    23    21    22    2
    24    21    23    1
    25    24    23    1
    26    24    25    1
    27    24    33    1
    28    25    26    1
    29    25    27    1
    30    27    28    1
    31    27    29    1
    32    29    30    1
    33    29    32    1
    34    30    31    1
    35    33    32    1
    36    33    34    1
    37    34    35   ar
    38    35    36    1
    39    36    37    1
    40    37    38    2
    41    37    39   am
    42    39    40    1
    43    39    46   am
    44    40    41    1
    45    40    43    1
    46    41    42    1
    47    43    44   ar
    48    43    45   ar
    49    46    47    1
    50    46    48    2
@<TRIPOS>MOLECULE
*****
 47 49 0 0 0
SMALL
GASTEIGER
****

@<TRIPOS>ATOM
      1 C           0.0000   -2.0000    0.0000 C.3     1  UNL1        0.2528
      2 O           0.8660   -1.5000    0.0000 O.3     1  UNL1       -0.4654
      3 C           0.8660   -0.5000    0.0000 C.ar    1  UNL1        0.2058
      4 C           1.7321    0.0000    0.0000 C.ar    1  UNL1        0.1755
      5 O           2.5981   -0.5000    0.0000 O.3     1  UNL1       -0.4704
      6 C           3.4641    0.0000    0.0000 C.3     1  UNL1        0.2269
      7 C           4.3301   -0.5000    0.0000 C.3     1  UNL1        0.1411
      8 N           4.3301   -1.5000    0.0000 N.am    1  UNL1       -0.2667
      9 C           5.1962   -2.0000    0.0000 C.3     1  UNL1        0.1908
     10 C           6.0622   -1.5000    0.0000 C.3     1  UNL1        0.1001
     11 S           6.9282   -2.0000    0.0000 S.3     1  UNL1       -0.0797
     12 C           5.1962   -3.0000    0.0000 C.2     1  UNL1        0.3834
     13 O           6.0622   -3.5000    0.0000 O.co2   1  UNL1       -0.2438
     14 O           4.3301   -3.5000    0.0000 O.co2   1  UNL1       -0.2438
     15 C           3.4641   -2.0000    0.0000 C.2     1  UNL1        0.2266
     16 C           3.4641   -3.0000    0.0000 C.3     1  UNL1        0.0948
     17 O           2.5981   -1.5000    0.0000 O.2     1  UNL1       -0.2748
     18 C           1.7321    1.0000    0.0000 C.ar    1  UNL1        0.0465
     19 C           0.8660    1.5000    0.0000 C.ar    1  UNL1        0.0802
     20 C           0.8660    2.5000    0.0000 C.2     1  UNL1        0.3412
     21 O           1.7321    3.0000    0.0000 O.2     1  UNL1       -0.2449
     22 O           0.0000    3.0000    0.0000 O.3     1  UNL1       -0.4435
     23 C          -0.8660    2.5000    0.0000 C.3     1  UNL1        0.2330
     24 C          -1.7321    3.0000    0.0000 C.3     1  UNL1        0.2271
     25 O          -1.7321    4.0000    0.0000 O.3     1  UNL1       -0.2163
     26 C          -2.5981    2.5000    0.0000 C.3     1  UNL1        0.2153
     27 O          -3.4641    3.0000    0.0000 O.3     1  UNL1       -0.2176
     28 C          -2.5981    1.5000    0.0000 C.3     1  UNL1        0.1814
     29 C          -3.4641    1.0000    0.0000 C.3     1  UNL1        0.2141
     30 O          -4.3301    1.5000    0.0000 O.3     1  UNL1       -0.2176
     31 O          -1.7321    1.0000    0.0000 O.3     1  UNL1       -0.3450
     32 C          -0.8660    1.5000    0.0000 C.3     1  UNL1        0.1832
     33 C          -0.0000    1.0000    0.0000 C.ar    1  UNL1        0.0516
     34 C           0.0000    0.0000    0.0000 C.ar    1  UNL1        0.1739
     35 O          -0.8660   -0.5000    0.0000 O.3     1  UNL1       -0.4707
     36 C          -0.8660   -1.5000    0.0000 C.3     1  UNL1        0.2269
     37 C          -1.7321   -2.0000    0.0000 C.3     1  UNL1        0.1411
     38 N          -1.7321   -3.0000    0.0000 N.am    1  UNL1       -0.2667
     39 C          -2.5981   -3.5000    0.0000 C.3     1  UNL1        0.1908
     40 C          -3.4641   -3.0000    0.0000 C.3     1  UNL1        0.1001
     41 S          -4.3301   -3.5000    0.0000 S.3     1  UNL1       -0.0797
     42 C          -2.5981   -4.5000    0.0000 C.2     1  UNL1        0.3834
     43 O          -3.4641   -5.0000    0.0000 O.co2   1  UNL1       -0.2438
     44 O          -1.7321   -5.0000    0.0000 O.co2   1  UNL1       -0.2438
     45 C          -0.8660   -3.5000    0.0000 C.2     1  UNL1        0.2266
     46 C          -0.8660   -4.5000    0.0000 C.3     1  UNL1        0.0948
     47 O          -0.0000   -3.0000    0.0000 O.2     1  UNL1       -0.2748
@<TRIPOS>BOND
     1     1     2    1
     2     2     3    1
     3     3    34   ar
     4     3     4   ar
     5     4     5    1
     6     4    18   ar
     7     5     6    1
     8     6     7    1
     9     7     8    1
    10     8     9    1
    11     8    15   am
    12     9    10    1
    13     9    12    1
    14    10    11    1
    15    12    13   ar
    16    12    14   ar
    17    15    16    1
    18    15    17    2
    19    18    19   ar
    20    19    33   ar
    21    19    20    1
    22    20    21    2
    23    20    22    1
    24    23    22    1
    25    23    24    1
    26    23    32    1
    27    24    25    1
    28    24    26    1
    29    26    27    1
    30    26    28    1
    31    28    29    1
    32    28    31    1
    33    29    30    1
    34    32    31    1
    35    32    33    1
    36    33    34   ar
    37    34    35    1
    38    35    36    1
    39    36    37    1
    40    37    38    1
    41    38    39    1
    42    38    45   am
    43    39    40    1
    44    39    42    1
    45    40    41    1
    46    42    43   ar
    47    42    44   ar
    48    45    46    1
    49    45    47    2
@<TRIPOS>MOLECULE
*****
 38 40 0 0 0
SMALL
GASTEIGER
****

@<TRIPOS>ATOM
      1 C          -3.4641   -3.0000    0.0000 C.3     1  UNL1        0.2528
      2 O          -2.5981   -2.5000    0.0000 O.3     1  UNL1       -0.4654
      3 C          -2.5981   -1.5000    0.0000 C.ar    1  UNL1        0.2072
      4 C          -1.7321   -1.0000    0.0000 C.ar    1  UNL1        0.1837
      5 O          -0.8660   -1.5000    0.0000 O.3     1  UNL1       -0.4211
      6 C          -0.8660   -2.5000    0.0000 C.2     1  UNL1        0.3221
      7 C           0.0000   -3.0000    0.0000 C.3     1  UNL1        0.1216
      8 O          -1.7321   -3.0000    0.0000 O.2     1  UNL1       -0.2497
      9 C          -1.7321    0.0000    0.0000 C.ar    1  UNL1        0.0524
     10 C          -2.5981    0.5000    0.0000 C.ar    1  UNL1        0.0802
     11 C          -3.4641    0.0000    0.0000 C.ar    1  UNL1        0.0472
     12 C          -3.4641   -1.0000    0.0000 C.ar    1  UNL1        0.1854
     13 O          -4.3301   -1.5000    0.0000 O.3     1  UNL1       -0.4209
     14 C          -5.1962   -1.0000    0.0000 C.2     1  UNL1        0.3221
     15 C          -5.1962    0.0000    0.0000 C.3     1  UNL1        0.1216
     16 O          -6.0622   -1.5000    0.0000 O.2     1  UNL1       -0.2497
     17 C          -2.5981    1.5000    0.0000 C.2     1  UNL1        0.3413
     18 O          -3.4641    2.0000    0.0000 O.2     1  UNL1       -0.2449
     19 O          -1.7321    2.0000    0.0000 O.3     1  UNL1       -0.4424
     20 C          -0.8660    1.5000    0.0000 C.3     1  UNL1        0.2436
     21 C          -0.0000    2.0000    0.0000 C.3     1  UNL1        0.2534
     22 O          -0.0000    3.0000    0.0000 O.3     1  UNL1       -0.4445
     23 C          -0.8660    3.5000    0.0000 C.2     1  UNL1        0.3177
     24 C          -0.8660    4.5000    0.0000 C.3     1  UNL1        0.1212
     25 O          -1.7321    3.0000    0.0000 O.2     1  UNL1       -0.2501
     26 C           0.8660    1.5000    0.0000 C.3     1  UNL1        0.2428
     27 O           1.7321    2.0000    0.0000 O.3     1  UNL1       -0.4456
     28 C           1.7321    3.0000    0.0000 C.2     1  UNL1        0.3176
     29 C           2.5981    3.5000    0.0000 C.3     1  UNL1        0.1212
     30 O           0.8660    3.5000    0.0000 O.2     1  UNL1       -0.2501
     31 C           0.8660    0.5000    0.0000 C.3     1  UNL1        0.2028
     32 C           1.7321   -0.0000    0.0000 C.3     1  UNL1        0.2416
     33 O           2.5981    0.5000    0.0000 O.3     1  UNL1       -0.4457
     34 C           3.4641   -0.0000    0.0000 C.2     1  UNL1        0.3176
     35 C           3.4641   -1.0000    0.0000 C.3     1  UNL1        0.1212
     36 O           4.3301    0.5000    0.0000 O.2     1  UNL1       -0.2501
     37 O           0.0000    0.0000    0.0000 O.3     1  UNL1       -0.3427
     38 C          -0.8660    0.5000    0.0000 C.3     1  UNL1        0.1845
@<TRIPOS>BOND
     1     1     2    1
     2     2     3    1
     3     3    12   ar
     4     3     4   ar
     5     4     5    1
     6     4     9   ar
     7     5     6    1
     8     6     7    1
     9     6     8    2
    10     9    38    1
    11     9    10   ar
    12    10    11   ar
    13    10    17    1
    14    11    12   ar
    15    12    13    1
    16    13    14    1
    17    14    15    1
    18    14    16    2
    19    17    18    2
    20    17    19    1
    21    20    19    1
    22    20    21    1
    23    20    38    1
    24    21    22    1
    25    21    26    1
    26    22    23    1
    27    23    24    1
    28    23    25    2
    29    26    27    1
    30    26    31    1
    31    27    28    1
    32    28    29    1
    33    28    30    2
    34    31    32    1
    35    31    37    1
    36    32    33    1
    37    33    34    1
    38    34    35    1
    39    34    36    2
    40    38    37    1
@<TRIPOS>MOLECULE
*****
 27 30 0 0 0
SMALL
GASTEIGER
****

@<TRIPOS>ATOM
      1 O          -1.7321    1.0000    0.0000 O.3     1  UNL1       -0.2176
      2 C          -0.8660    1.5000    0.0000 C.3     1  UNL1        0.2141
      3 C           0.0000    1.0000    0.0000 C.3     1  UNL1        0.1814
      4 O           0.8660    1.5000    0.0000 O.3     1  UNL1       -0.3450
      5 C           1.7321    1.0000    0.0000 C.3     1  UNL1        0.1835
      6 C           1.7321   -0.0000    0.0000 C.3     1  UNL1        0.2330
      7 O           2.5981   -0.5000    0.0000 O.3     1  UNL1       -0.4435
      8 C           3.4641   -0.0000    0.0000 C.2     1  UNL1        0.3427
      9 O           4.3301   -0.5000    0.0000 O.2     1  UNL1       -0.2448
     10 C           3.4641    1.0000    0.0000 C.ar    1  UNL1        0.0982
     11 C           4.3301    1.5000    0.0000 C.ar    1  UNL1        0.1328
     12 N           5.1962    1.0000    0.0000 N.ar    1  UNL1       -0.2044
     13 C           5.3007    0.0055    0.0000 C.ar    1  UNL1        0.2017
     14 N           6.2788   -0.2024    0.0000 N.ar    1  UNL1       -0.2004
     15 C           6.7788    0.6636    0.0000 C.ar    1  UNL1        0.2214
     16 N           6.1097    1.4067    0.0000 N.ar    1  UNL1       -0.1408
     17 C           4.3301    2.5000    0.0000 C.ar    1  UNL1        0.2552
     18 O           5.1962    3.0000    0.0000 O.3     1  UNL1       -0.2814
     19 C           3.4641    3.0000    0.0000 C.ar    1  UNL1        0.2740
     20 O           3.4641    4.0000    0.0000 O.3     1  UNL1       -0.2796
     21 C           2.5981    2.5000    0.0000 C.ar    1  UNL1        0.2362
     22 O           1.7321    3.0000    0.0000 O.3     1  UNL1       -0.2833
     23 C           2.5981    1.5000    0.0000 C.ar    1  UNL1        0.0583
     24 C           0.8660   -0.5000    0.0000 C.3     1  UNL1        0.2271
     25 O           0.8660   -1.5000    0.0000 O.3     1  UNL1       -0.2163
     26 C           0.0000   -0.0000    0.0000 C.3     1  UNL1        0.2153
     27 O          -0.8660   -0.5000    0.0000 O.3     1  UNL1       -0.2176
@<TRIPOS>BOND
     1     1     2    1
     2     3     2    1
     3     3     4    1
     4     3    26    1
     5     5     4    1
     6     5     6    1
     7     5    23    1
     8     6     7    1
     9     6    24    1
    10     7     8    1
    11     8     9    2
    12     8    10    1
    13    10    23   ar
    14    10    11   ar
    15    11    12    1
    16    11    17   ar
    17    12    16   ar
    18    12    13   ar
    19    13    14   ar
    20    14    15   ar
    21    15    16   ar
    22    17    18    1
    23    17    19   ar
    24    19    20    1
    25    19    21   ar
    26    21    22    1
    27    21    23   ar
    28    24    25    1
    29    24    26    1
    30    26    27    1
@<TRIPOS>MOLECULE
*****
 32 34 0 0 0
SMALL
GASTEIGER
****

@<TRIPOS>ATOM
      1 O           0.8660    1.5000    0.0000 O.3     1  UNL1       -0.2832
      2 C           0.0000    1.0000    0.0000 C.ar    1  UNL1        0.2327
      3 C          -0.8660    1.5000    0.0000 C.ar    1  UNL1        0.0516
      4 C          -1.7321    1.0000    0.0000 C.ar    1  UNL1        0.0805
      5 C          -1.7321    0.0000    0.0000 C.ar    1  UNL1        0.0566
      6 C          -2.5981   -0.5000    0.0000 C.3     1  UNL1        0.1833
      7 O          -2.5981   -1.5000    0.0000 O.3     1  UNL1       -0.3459
      8 C          -3.4641   -2.0000    0.0000 C.3     1  UNL1        0.1710
      9 C          -3.4641   -3.0000    0.0000 C.3     1  UNL1        0.2133
     10 O          -2.5981   -3.5000    0.0000 O.3     1  UNL1       -0.2176
     11 C          -4.3301   -1.5000    0.0000 C.3     1  UNL1        0.1589
     12 N          -5.1962   -2.0000    0.0000 N.am    1  UNL1       -0.2004
     13 C          -6.0622   -1.5000    0.0000 C.2     1  UNL1        0.2622
     14 O          -6.0622   -0.5000    0.0000 O.2     1  UNL1       -0.2715
     15 C          -6.9282   -2.0000    0.0000 C.3     1  UNL1        0.1843
     16 N          -7.7942   -1.5000    0.0000 N.am    1  UNL1       -0.1968
     17 C          -7.7942   -0.5000    0.0000 C.2     1  UNL1        0.2423
     18 O          -6.9282    0.0000    0.0000 O.2     1  UNL1       -0.2733
     19 C          -8.6603    0.0000    0.0000 C.3     1  UNL1        0.0964
     20 C          -6.9282   -3.0000    0.0000 C.3     1  UNL1        0.0997
     21 S          -7.7942   -3.5000    0.0000 S.3     1  UNL1       -0.0797
     22 C          -4.3301   -0.5000    0.0000 C.3     1  UNL1        0.2167
     23 O          -5.1962    0.0000    0.0000 O.3     1  UNL1       -0.2172
     24 C          -3.4641    0.0000    0.0000 C.3     1  UNL1        0.2321
     25 O          -3.4641    1.0000    0.0000 O.3     1  UNL1       -0.4436
     26 C          -2.5981    1.5000    0.0000 C.2     1  UNL1        0.3412
     27 O          -2.5981    2.5000    0.0000 O.2     1  UNL1       -0.2449
     28 C          -0.8660   -0.5000    0.0000 C.ar    1  UNL1        0.2311
     29 O          -0.8660   -1.5000    0.0000 O.3     1  UNL1       -0.2835
     30 C           0.0000   -0.0000    0.0000 C.ar    1  UNL1        0.2159
     31 O           0.8660   -0.5000    0.0000 O.3     1  UNL1       -0.4652
     32 C           0.8660   -1.5000    0.0000 C.3     1  UNL1        0.2528
@<TRIPOS>BOND
     1     1     2    1
     2     2    30   ar
     3     2     3   ar
     4     3     4   ar
     5     4    26    1
     6     4     5   ar
     7     5    28   ar
     8     6     5    1
     9     6     7    1
    10     6    24    1
    11     7     8    1
    12     8     9    1
    13     8    11    1
    14     9    10    1
    15    11    12    1
    16    11    22    1
    17    12    13   am
    18    13    14    2
    19    13    15    1
    20    15    16    1
    21    15    20    1
    22    16    17   am
    23    17    18    2
    24    17    19    1
    25    20    21    1
    26    22    23    1
    27    22    24    1
    28    24    25    1
    29    25    26    1
    30    26    27    2
    31    28    29    1
    32    28    30   ar
    33    30    31    1
    34    31    32    1
