
  Mrv2317 03242421522D          

450484  0  0  0  0            999 V2000
 -102.9903  617.6368    0.0000 C   0  0  0  0  0  0  0  0  0  0  0  0
 -102.2758  618.0494    0.0000 O   0  0  0  0  0  0  0  0  0  0  0  0
 -101.5614  617.6368    0.0000 C   0  0  0  0  0  0  0  0  0  0  0  0
 -101.5614  616.8118    0.0000 C   0  0  0  0  0  0  0  0  0  0  0  0
 -102.2758  616.3991    0.0000 O   0  0  0  0  0  0  0  0  0  0  0  0
 -102.2758  615.5741    0.0000 C   0  0  0  0  0  0  0  0  0  0  0  0
 -101.5614  615.1618    0.0000 O   0  0  0  0  0  0  0  0  0  0  0  0
 -102.9903  615.1618    0.0000 C   0  0  0  0  0  0  0  0  0  0  0  0
 -103.7046  615.5741    0.0000 C   0  0  0  0  0  0  0  0  0  0  0  0
 -104.4196  615.1618    0.0000 C   0  0  0  0  0  0  0  0  0  0  0  0
 -104.4196  614.3368    0.0000 C   0  0  0  0  0  0  0  0  0  0  0  0
 -103.7046  613.9241    0.0000 C   0  0  0  0  0  0  0  0  0  0  0  0
 -102.9903  614.3368    0.0000 C   0  0  0  0  0  0  0  0  0  0  0  0
 -103.7046  613.0991    0.0000 N   0  3  0  0  0  0  0  0  0  0  0  0
 -104.4196  612.6865    0.0000 O   0  5  0  0  0  0  0  0  0  0  0  0
 -102.9903  612.6865    0.0000 O   0  0  0  0  0  0  0  0  0  0  0  0
 -105.1340  615.5741    0.0000 N   0  3  0  0  0  0  0  0  0  0  0  0
 -105.8485  615.1618    0.0000 O   0  5  0  0  0  0  0  0  0  0  0  0
 -105.1340  616.3991    0.0000 O   0  0  0  0  0  0  0  0  0  0  0  0
 -100.8467  616.3991    0.0000 C   0  0  0  0  0  0  0  0  0  0  0  0
 -100.1323  616.8118    0.0000 C   0  0  0  0  0  0  0  0  0  0  0  0
  -99.4179  616.3991    0.0000 C   0  0  0  0  0  0  0  0  0  0  0  0
  -99.4179  615.5741    0.0000 O   0  0  0  0  0  0  0  0  0  0  0  0
  -98.7035  616.8118    0.0000 O   0  0  0  0  0  0  0  0  0  0  0  0
  -98.7035  617.6368    0.0000 C   0  0  2  0  0  0  0  0  0  0  0  0
  -97.9888  618.0494    0.0000 C   0  0  1  0  0  0  0  0  0  0  0  0
  -97.2744  617.6368    0.0000 O   0  0  0  0  0  0  0  0  0  0  0  0
  -97.9888  618.8744    0.0000 C   0  0  2  0  0  0  0  0  0  0  0  0
  -97.2744  619.2868    0.0000 O   0  0  0  0  0  0  0  0  0  0  0  0
  -98.7035  619.2868    0.0000 C   0  0  1  0  0  0  0  0  0  0  0  0
  -98.7035  620.1118    0.0000 C   0  0  0  0  0  0  0  0  0  0  0  0
  -97.9888  620.5244    0.0000 O   0  0  0  0  0  0  0  0  0  0  0  0
  -99.4179  618.8744    0.0000 O   0  0  0  0  0  0  0  0  0  0  0  0
  -99.4179  618.0494    0.0000 C   0  0  1  0  0  0  0  0  0  0  0  0
 -100.1323  617.6368    0.0000 C   0  0  0  0  0  0  0  0  0  0  0  0
 -100.8467  618.0494    0.0000 C   0  0  0  0  0  0  0  0  0  0  0  0
 -100.8467  618.8744    0.0000 O   0  0  0  0  0  0  0  0  0  0  0  0
 -105.1910  623.6456    0.0000 C   0  0  0  0  0  0  0  0  0  0  0  0
 -104.4766  624.0582    0.0000 O   0  0  0  0  0  0  0  0  0  0  0  0
 -103.7622  623.6456    0.0000 C   0  0  0  0  0  0  0  0  0  0  0  0
 -103.7622  622.8206    0.0000 C   0  0  0  0  0  0  0  0  0  0  0  0
 -103.0477  622.4082    0.0000 C   0  0  0  0  0  0  0  0  0  0  0  0
 -102.3331  622.8206    0.0000 C   0  0  0  0  0  0  0  0  0  0  0  0
 -102.3331  623.6456    0.0000 C   0  0  0  0  0  0  0  0  0  0  0  0
 -103.0477  624.0582    0.0000 C   0  0  0  0  0  0  0  0  0  0  0  0
 -103.0477  624.8832    0.0000 O   0  0  0  0  0  0  0  0  0  0  0  0
 -101.6186  624.0582    0.0000 C   0  0  1  0  0  0  0  0  0  0  0  0
 -100.9043  623.6456    0.0000 C   0  0  1  0  0  0  0  0  0  0  0  0
 -100.1898  624.0582    0.0000 C   0  0  2  0  0  0  0  0  0  0  0  0
 -100.1898  624.8832    0.0000 C   0  0  1  0  0  0  0  0  0  0  0  0
 -100.9043  625.2959    0.0000 C   0  0  2  0  0  0  0  0  0  0  0  0
 -101.6186  624.8832    0.0000 O   0  0  0  0  0  0  0  0  0  0  0  0
 -100.9043  626.1209    0.0000 C   0  0  0  0  0  0  0  0  0  0  0  0
 -100.1898  626.5332    0.0000 O   0  0  0  0  0  0  0  0  0  0  0  0
  -99.4751  625.2959    0.0000 O   0  0  0  0  0  0  0  0  0  0  0  0
  -99.4751  623.6456    0.0000 O   0  0  0  0  0  0  0  0  0  0  0  0
 -100.9043  622.8206    0.0000 O   0  0  0  0  0  0  0  0  0  0  0  0
 -101.6186  622.4082    0.0000 C   0  0  0  0  0  0  0  0  0  0  0  0
 -101.6186  621.5832    0.0000 O   0  0  0  0  0  0  0  0  0  0  0  0
 -104.4766  622.4082    0.0000 O   0  0  0  0  0  0  0  0  0  0  0  0
 -100.2798  597.4941    0.0000 O   0  0  0  0  0  0  0  0  0  0  0  0
 -100.9942  597.9067    0.0000 C   0  0  1  0  0  0  0  0  0  0  0  0
 -100.9942  598.7317    0.0000 C   0  0  2  0  0  0  0  0  0  0  0  0
 -100.2798  599.1444    0.0000 O   0  0  0  0  0  0  0  0  0  0  0  0
 -101.7086  599.1444    0.0000 C   0  0  1  0  0  0  0  0  0  0  0  0
 -101.7086  599.9694    0.0000 C   0  0  0  0  0  0  0  0  0  0  0  0
 -100.9942  600.3818    0.0000 O   0  0  0  0  0  0  0  0  0  0  0  0
 -102.4230  598.7317    0.0000 O   0  0  0  0  0  0  0  0  0  0  0  0
 -102.4230  597.9067    0.0000 C   0  0  2  0  0  0  0  0  0  0  0  0
 -101.7086  597.4941    0.0000 C   0  0  2  0  0  0  0  0  0  0  0  0
 -101.7086  596.6691    0.0000 O   0  0  0  0  0  0  0  0  0  0  0  0
 -102.4230  596.2568    0.0000 C   0  0  0  0  0  0  0  0  0  0  0  0
 -103.1377  596.6691    0.0000 C   0  0  0  0  0  0  0  0  0  0  0  0
 -103.1377  597.4941    0.0000 C   0  0  0  0  0  0  0  0  0  0  0  0
 -103.8521  597.9067    0.0000 C   0  0  0  0  0  0  0  0  0  0  0  0
 -103.8521  598.7317    0.0000 O   0  0  0  0  0  0  0  0  0  0  0  0
 -104.5665  597.4941    0.0000 C   0  0  0  0  0  0  0  0  0  0  0  0
 -105.2809  597.9067    0.0000 O   0  0  0  0  0  0  0  0  0  0  0  0
 -105.9954  597.4941    0.0000 C   0  0  0  0  0  0  0  0  0  0  0  0
 -104.5665  596.6691    0.0000 C   0  0  0  0  0  0  0  0  0  0  0  0
 -105.2809  596.2568    0.0000 O   0  0  0  0  0  0  0  0  0  0  0  0
 -103.8521  596.2568    0.0000 C   0  0  0  0  0  0  0  0  0  0  0  0
 -103.8521  595.4317    0.0000 N   0  0  0  0  0  0  0  0  0  0  0  0
 -103.1845  594.9465    0.0000 N   0  0  0  0  0  0  0  0  0  0  0  0
 -103.4395  594.1619    0.0000 C   0  0  0  0  0  0  0  0  0  0  0  0
 -104.2645  594.1619    0.0000 N   0  0  0  0  0  0  0  0  0  0  0  0
 -104.5195  594.9465    0.0000 C   0  0  0  0  0  0  0  0  0  0  0  0
 -102.4230  595.4317    0.0000 O   0  0  0  0  0  0  0  0  0  0  0  0
  -97.1402  590.4108    0.0000 O   0  0  0  0  0  0  0  0  0  0  0  0
  -97.8545  589.9982    0.0000 C   0  0  1  0  0  0  0  0  0  0  0  0
  -97.8545  589.1732    0.0000 C   0  0  1  0  0  0  0  0  0  0  0  0
  -97.1402  588.7608    0.0000 O   0  0  0  0  0  0  0  0  0  0  0  0
  -98.5690  588.7608    0.0000 C   0  0  2  0  0  0  0  0  0  0  0  0
  -98.5690  587.9358    0.0000 O   0  0  0  0  0  0  0  0  0  0  0  0
  -99.2837  589.1732    0.0000 C   0  0  2  0  0  0  0  0  0  0  0  0
  -99.9981  588.7608    0.0000 C   0  0  0  0  0  0  0  0  0  0  0  0
 -100.7125  589.1732    0.0000 C   0  0  0  0  0  0  0  0  0  0  0  0
 -100.7125  589.9982    0.0000 O   0  0  0  0  0  0  0  0  0  0  0  0
 -101.4269  590.4108    0.0000 C   0  0  0  0  0  0  0  0  0  0  0  0
 -101.4269  591.2358    0.0000 C   0  0  0  0  0  0  0  0  0  0  0  0
 -102.0946  591.7208    0.0000 C   0  0  0  0  0  0  0  0  0  0  0  0
 -101.8396  592.5054    0.0000 N   0  0  0  0  0  0  0  0  0  0  0  0
 -101.0146  592.5054    0.0000 N   0  0  0  0  0  0  0  0  0  0  0  0
 -100.7596  591.7208    0.0000 N   0  0  0  0  0  0  0  0  0  0  0  0
 -101.4269  588.7608    0.0000 C   0  0  0  0  0  0  0  0  0  0  0  0
 -102.1416  589.1732    0.0000 O   0  0  0  0  0  0  0  0  0  0  0  0
 -102.8560  588.7608    0.0000 C   0  0  0  0  0  0  0  0  0  0  0  0
 -101.4269  587.9358    0.0000 C   0  0  0  0  0  0  0  0  0  0  0  0
 -102.1416  587.5232    0.0000 O   0  0  0  0  0  0  0  0  0  0  0  0
 -102.8560  587.9358    0.0000 C   0  0  0  0  0  0  0  0  0  0  0  0
 -103.5704  587.5232    0.0000 C   0  0  0  0  0  0  0  0  0  0  0  0
 -103.6568  586.7026    0.0000 C   0  0  0  0  0  0  0  0  0  0  0  0
 -104.4636  586.5312    0.0000 N   0  0  0  0  0  0  0  0  0  0  0  0
 -104.8762  587.2456    0.0000 N   0  0  0  0  0  0  0  0  0  0  0  0
 -104.3241  587.8588    0.0000 N   0  0  0  0  0  0  0  0  0  0  0  0
 -100.7125  587.5232    0.0000 C   0  0  0  0  0  0  0  0  0  0  0  0
  -99.9981  587.9358    0.0000 C   0  0  0  0  0  0  0  0  0  0  0  0
  -99.2837  587.5232    0.0000 C   0  0  0  0  0  0  0  0  0  0  0  0
  -99.2837  586.6982    0.0000 O   0  0  0  0  0  0  0  0  0  0  0  0
  -99.2837  589.9982    0.0000 O   0  0  0  0  0  0  0  0  0  0  0  0
  -98.5690  590.4108    0.0000 C   0  0  2  0  0  0  0  0  0  0  0  0
  -98.5690  591.2358    0.0000 C   0  0  0  0  0  0  0  0  0  0  0  0
  -97.8545  591.6484    0.0000 O   0  0  0  0  0  0  0  0  0  0  0  0
  -99.2897  581.3908    0.0000 O   0  0  0  0  0  0  0  0  0  0  0  0
 -100.0041  580.9782    0.0000 C   0  0  1  0  0  0  0  0  0  0  0  0
 -100.0041  580.1532    0.0000 C   0  0  1  0  0  0  0  0  0  0  0  0
  -99.2897  579.7405    0.0000 O   0  0  0  0  0  0  0  0  0  0  0  0
 -100.7185  579.7405    0.0000 C   0  0  2  0  0  0  0  0  0  0  0  0
 -100.7185  578.9155    0.0000 O   0  0  0  0  0  0  0  0  0  0  0  0
 -101.4329  580.1532    0.0000 C   0  0  2  0  0  0  0  0  0  0  0  0
 -102.1476  579.7405    0.0000 C   0  0  0  0  0  0  0  0  0  0  0  0
 -102.8621  580.1532    0.0000 C   0  0  0  0  0  0  0  0  0  0  0  0
 -102.8621  580.9782    0.0000 O   0  0  0  0  0  0  0  0  0  0  0  0
 -103.5764  579.7405    0.0000 C   0  0  0  0  0  0  0  0  0  0  0  0
 -104.2909  580.1532    0.0000 O   0  0  0  0  0  0  0  0  0  0  0  0
 -105.0056  579.7405    0.0000 C   0  0  0  0  0  0  0  0  0  0  0  0
 -102.1476  578.9155    0.0000 C   0  0  0  0  0  0  0  0  0  0  0  0
 -102.8621  578.5032    0.0000 C   0  0  0  0  0  0  0  0  0  0  0  0
 -102.8621  577.6782    0.0000 C   0  0  0  0  0  0  0  0  0  0  0  0
 -103.5764  577.2655    0.0000 O   0  0  0  0  0  0  0  0  0  0  0  0
 -103.5764  578.9155    0.0000 C   0  0  0  0  0  0  0  0  0  0  0  0
 -104.2909  578.5032    0.0000 O   0  0  0  0  0  0  0  0  0  0  0  0
 -101.4329  578.5032    0.0000 C   0  0  0  0  0  0  0  0  0  0  0  0
 -101.4329  577.6782    0.0000 O   0  0  0  0  0  0  0  0  0  0  0  0
 -101.4329  580.9782    0.0000 O   0  0  0  0  0  0  0  0  0  0  0  0
 -100.7185  581.3908    0.0000 C   0  0  2  0  0  0  0  0  0  0  0  0
 -100.7185  582.2158    0.0000 C   0  0  0  0  0  0  0  0  0  0  0  0
 -100.0041  582.6282    0.0000 O   0  0  0  0  0  0  0  0  0  0  0  0
  -98.8683  573.2591    0.0000 O   0  0  0  0  0  0  0  0  0  0  0  0
  -99.5827  572.8467    0.0000 C   0  0  1  0  0  0  0  0  0  0  0  0
  -99.5827  572.0217    0.0000 C   0  0  1  0  0  0  0  0  0  0  0  0
  -98.8683  571.6091    0.0000 O   0  0  0  0  0  0  0  0  0  0  0  0
 -100.2974  571.6091    0.0000 C   0  0  2  0  0  0  0  0  0  0  0  0
 -100.2974  570.7841    0.0000 O   0  0  0  0  0  0  0  0  0  0  0  0
 -101.0118  572.0217    0.0000 C   0  0  2  0  0  0  0  0  0  0  0  0
 -101.7262  571.6091    0.0000 C   0  0  0  0  0  0  0  0  0  0  0  0
 -102.4406  572.0217    0.0000 C   0  0  0  0  0  0  0  0  0  0  0  0
 -102.4406  572.8467    0.0000 O   0  0  0  0  0  0  0  0  0  0  0  0
 -103.1550  571.6091    0.0000 C   0  0  0  0  0  0  0  0  0  0  0  0
 -103.8697  572.0217    0.0000 O   0  0  0  0  0  0  0  0  0  0  0  0
 -104.5841  571.6091    0.0000 C   0  0  0  0  0  0  0  0  0  0  0  0
 -103.1550  570.7841    0.0000 C   0  0  0  0  0  0  0  0  0  0  0  0
 -103.8697  570.3715    0.0000 O   0  0  0  0  0  0  0  0  0  0  0  0
 -102.4406  570.3715    0.0000 C   0  0  0  0  0  0  0  0  0  0  0  0
 -102.4406  569.5465    0.0000 C   0  0  0  0  0  0  0  0  0  0  0  0
 -103.1550  569.1341    0.0000 N   0  0  0  0  0  0  0  0  0  0  0  0
 -103.1550  568.3091    0.0000 C   0  0  0  0  0  0  0  0  0  0  0  0
 -103.8697  567.8965    0.0000 C   0  0  0  0  0  0  0  0  0  0  0  0
 -104.5841  568.3091    0.0000 O   0  0  0  0  0  0  0  0  0  0  0  0
 -104.5841  569.1341    0.0000 C   0  0  0  0  0  0  0  0  0  0  0  0
 -103.8697  569.5465    0.0000 C   0  0  0  0  0  0  0  0  0  0  0  0
 -101.7262  570.7841    0.0000 C   0  0  0  0  0  0  0  0  0  0  0  0
 -101.0118  570.3715    0.0000 C   0  0  0  0  0  0  0  0  0  0  0  0
 -101.0118  569.5465    0.0000 O   0  0  0  0  0  0  0  0  0  0  0  0
 -101.0118  572.8467    0.0000 O   0  0  0  0  0  0  0  0  0  0  0  0
 -100.2974  573.2591    0.0000 C   0  0  2  0  0  0  0  0  0  0  0  0
 -100.2974  574.0841    0.0000 C   0  0  0  0  0  0  0  0  0  0  0  0
  -99.5827  574.4967    0.0000 O   0  0  0  0  0  0  0  0  0  0  0  0
  -99.1899  565.3434    0.0000 O   0  0  0  0  0  0  0  0  0  0  0  0
  -99.9043  564.9307    0.0000 C   0  0  1  0  0  0  0  0  0  0  0  0
  -99.9043  564.1057    0.0000 C   0  0  1  0  0  0  0  0  0  0  0  0
  -99.1899  563.6930    0.0000 O   0  0  0  0  0  0  0  0  0  0  0  0
 -100.6187  563.6930    0.0000 C   0  0  2  0  0  0  0  0  0  0  0  0
 -100.6187  562.8680    0.0000 O   0  0  0  0  0  0  0  0  0  0  0  0
 -101.3331  564.1057    0.0000 C   0  0  2  0  0  0  0  0  0  0  0  0
 -102.0478  563.6930    0.0000 C   0  0  0  0  0  0  0  0  0  0  0  0
 -102.7622  564.1057    0.0000 C   0  0  0  0  0  0  0  0  0  0  0  0
 -102.7622  564.9307    0.0000 O   0  0  0  0  0  0  0  0  0  0  0  0
 -103.4769  563.6930    0.0000 C   0  0  0  0  0  0  0  0  0  0  0  0
 -104.1913  564.1057    0.0000 O   0  0  0  0  0  0  0  0  0  0  0  0
 -104.9060  563.6930    0.0000 C   0  0  0  0  0  0  0  0  0  0  0  0
 -103.4769  562.8680    0.0000 C   0  0  0  0  0  0  0  0  0  0  0  0
 -104.1913  562.4557    0.0000 O   0  0  0  0  0  0  0  0  0  0  0  0
 -102.7622  562.4557    0.0000 C   0  0  0  0  0  0  0  0  0  0  0  0
 -102.7622  561.6307    0.0000 C   0  0  0  0  0  0  0  0  0  0  0  0
 -103.4769  561.2180    0.0000 N   0  0  0  0  0  0  0  0  0  0  0  0
 -103.4769  560.3930    0.0000 N   0  0  0  0  0  0  0  0  0  0  0  0
 -104.1913  559.9804    0.0000 C   0  0  0  0  0  0  0  0  0  0  0  0
 -104.9060  560.3930    0.0000 N   0  0  0  0  0  0  0  0  0  0  0  0
 -104.1913  559.1554    0.0000 N   0  0  0  0  0  0  0  0  0  0  0  0
 -102.0478  562.8680    0.0000 C   0  0  0  0  0  0  0  0  0  0  0  0
 -101.3331  562.4557    0.0000 C   0  0  0  0  0  0  0  0  0  0  0  0
 -101.3331  561.6307    0.0000 O   0  0  0  0  0  0  0  0  0  0  0  0
 -101.3331  564.9307    0.0000 O   0  0  0  0  0  0  0  0  0  0  0  0
 -100.6187  565.3434    0.0000 C   0  0  2  0  0  0  0  0  0  0  0  0
 -100.6187  566.1684    0.0000 C   0  0  0  0  0  0  0  0  0  0  0  0
  -99.9043  566.5807    0.0000 O   0  0  0  0  0  0  0  0  0  0  0  0
  -97.4780  554.7430    0.0000 O   0  0  0  0  0  0  0  0  0  0  0  0
  -98.1924  554.3303    0.0000 C   0  0  2  0  0  0  0  0  0  0  0  0
  -98.1924  553.5053    0.0000 C   0  0  1  0  0  0  0  0  0  0  0  0
  -97.4780  553.0930    0.0000 O   0  0  0  0  0  0  0  0  0  0  0  0
  -98.9068  553.0930    0.0000 C   0  0  2  0  0  0  0  0  0  0  0  0
  -98.9068  552.2680    0.0000 O   0  0  0  0  0  0  0  0  0  0  0  0
  -99.6215  553.5053    0.0000 C   0  0  2  0  0  0  0  0  0  0  0  0
 -100.3359  553.0930    0.0000 C   0  0  0  0  0  0  0  0  0  0  0  0
 -101.0506  553.5053    0.0000 C   0  0  0  0  0  0  0  0  0  0  0  0
 -101.0506  554.3303    0.0000 O   0  0  0  0  0  0  0  0  0  0  0  0
 -101.7650  554.7430    0.0000 C   0  0  0  0  0  0  0  0  0  0  0  0
 -101.7650  555.5680    0.0000 N   0  0  0  0  0  0  0  0  0  0  0  0
 -101.0506  555.9806    0.0000 C   0  0  0  0  0  0  0  0  0  0  0  0
 -100.3359  555.5680    0.0000 C   0  0  0  0  0  0  0  0  0  0  0  0
 -101.0506  556.8056    0.0000 O   0  0  0  0  0  0  0  0  0  0  0  0
 -102.4794  555.9806    0.0000 C   0  0  2  0  0  0  0  0  0  0  0  0
 -103.1938  555.5680    0.0000 C   0  0  0  0  0  0  0  0  0  0  0  0
 -103.9085  555.9806    0.0000 S   0  0  0  0  0  0  0  0  0  0  0  0
 -102.4794  556.8056    0.0000 C   0  0  0  0  0  0  0  0  0  0  0  0
 -103.1938  557.2180    0.0000 O   0  0  0  0  0  0  0  0  0  0  0  0
 -101.7650  557.2180    0.0000 O   0  0  0  0  0  0  0  0  0  0  0  0
 -102.4794  554.3303    0.0000 O   0  0  0  0  0  0  0  0  0  0  0  0
 -101.7650  553.0930    0.0000 C   0  0  0  0  0  0  0  0  0  0  0  0
 -102.4794  553.5053    0.0000 O   0  0  0  0  0  0  0  0  0  0  0  0
 -103.1938  553.0930    0.0000 C   0  0  0  0  0  0  0  0  0  0  0  0
 -101.7650  552.2680    0.0000 C   0  0  0  0  0  0  0  0  0  0  0  0
 -102.4794  551.8553    0.0000 O   0  0  0  0  0  0  0  0  0  0  0  0
 -102.4794  551.0303    0.0000 C   0  0  0  0  0  0  0  0  0  0  0  0
 -103.1938  550.6177    0.0000 C   0  0  0  0  0  0  0  0  0  0  0  0
 -103.1938  549.7927    0.0000 N   0  0  0  0  0  0  0  0  0  0  0  0
 -102.4794  549.3803    0.0000 C   0  0  0  0  0  0  0  0  0  0  0  0
 -101.7650  549.7927    0.0000 C   0  0  0  0  0  0  0  0  0  0  0  0
 -102.4794  548.5553    0.0000 O   0  0  0  0  0  0  0  0  0  0  0  0
 -103.9085  549.3803    0.0000 C   0  0  2  0  0  0  0  0  0  0  0  0
 -104.6229  549.7927    0.0000 C   0  0  0  0  0  0  0  0  0  0  0  0
 -105.3373  549.3803    0.0000 S   0  0  0  0  0  0  0  0  0  0  0  0
 -103.9085  548.5553    0.0000 C   0  0  0  0  0  0  0  0  0  0  0  0
 -104.6229  548.1427    0.0000 O   0  0  0  0  0  0  0  0  0  0  0  0
 -103.1938  548.1427    0.0000 O   0  0  0  0  0  0  0  0  0  0  0  0
 -101.7650  550.6177    0.0000 O   0  0  0  0  0  0  0  0  0  0  0  0
 -101.0506  551.8553    0.0000 C   0  0  0  0  0  0  0  0  0  0  0  0
 -100.3359  552.2680    0.0000 C   0  0  0  0  0  0  0  0  0  0  0  0
  -99.6215  551.8553    0.0000 C   0  0  0  0  0  0  0  0  0  0  0  0
  -99.6215  551.0303    0.0000 O   0  0  0  0  0  0  0  0  0  0  0  0
  -99.6215  554.3303    0.0000 O   0  0  0  0  0  0  0  0  0  0  0  0
  -98.9068  554.7430    0.0000 C   0  0  1  0  0  0  0  0  0  0  0  0
  -98.9068  555.5680    0.0000 C   0  0  0  0  0  0  0  0  0  0  0  0
  -98.1924  555.9806    0.0000 O   0  0  0  0  0  0  0  0  0  0  0  0
  -97.4986  542.0786    0.0000 O   0  0  0  0  0  0  0  0  0  0  0  0
  -98.2130  541.6662    0.0000 C   0  0  1  0  0  0  0  0  0  0  0  0
  -98.2130  540.8412    0.0000 C   0  0  1  0  0  0  0  0  0  0  0  0
  -97.4986  540.4286    0.0000 O   0  0  0  0  0  0  0  0  0  0  0  0
  -98.9274  540.4286    0.0000 C   0  0  2  0  0  0  0  0  0  0  0  0
  -98.9274  539.6036    0.0000 O   0  0  0  0  0  0  0  0  0  0  0  0
  -99.6418  540.8412    0.0000 C   0  0  2  0  0  0  0  0  0  0  0  0
 -100.3563  540.4286    0.0000 C   0  0  0  0  0  0  0  0  0  0  0  0
 -101.0709  540.8412    0.0000 C   0  0  0  0  0  0  0  0  0  0  0  0
 -101.0709  541.6662    0.0000 O   0  0  0  0  0  0  0  0  0  0  0  0
 -101.7853  542.0786    0.0000 C   0  0  0  0  0  0  0  0  0  0  0  0
 -101.7853  542.9038    0.0000 C   0  0  0  0  0  0  0  0  0  0  0  0
 -102.4998  543.3162    0.0000 N   0  0  0  0  0  0  0  0  0  0  0  0
 -102.4998  544.1412    0.0000 C   0  0  2  0  0  0  0  0  0  0  0  0
 -101.7853  544.5538    0.0000 C   0  0  0  0  0  0  0  0  0  0  0  0
 -101.0709  544.1412    0.0000 S   0  0  0  0  0  0  0  0  0  0  0  0
 -103.2142  544.5538    0.0000 C   0  0  0  0  0  0  0  0  0  0  0  0
 -103.9288  544.1412    0.0000 O   0  0  0  0  0  0  0  0  0  0  0  0
 -103.2142  545.3788    0.0000 O   0  0  0  0  0  0  0  0  0  0  0  0
 -103.2142  542.9038    0.0000 C   0  0  0  0  0  0  0  0  0  0  0  0
 -103.9288  543.3162    0.0000 C   0  0  0  0  0  0  0  0  0  0  0  0
 -103.2142  542.0786    0.0000 O   0  0  0  0  0  0  0  0  0  0  0  0
 -101.7853  540.4286    0.0000 C   0  0  0  0  0  0  0  0  0  0  0  0
 -102.4998  540.8412    0.0000 O   0  0  0  0  0  0  0  0  0  0  0  0
 -103.2142  540.4286    0.0000 C   0  0  0  0  0  0  0  0  0  0  0  0
 -101.7853  539.6036    0.0000 C   0  0  0  0  0  0  0  0  0  0  0  0
 -102.4998  539.1912    0.0000 O   0  0  0  0  0  0  0  0  0  0  0  0
 -103.2142  539.6036    0.0000 C   0  0  0  0  0  0  0  0  0  0  0  0
 -103.9288  539.1912    0.0000 C   0  0  0  0  0  0  0  0  0  0  0  0
 -104.6433  539.6036    0.0000 N   0  0  0  0  0  0  0  0  0  0  0  0
 -104.6433  540.4286    0.0000 C   0  0  0  0  0  0  0  0  0  0  0  0
 -105.3577  540.8412    0.0000 C   0  0  0  0  0  0  0  0  0  0  0  0
 -103.9288  540.8412    0.0000 O   0  0  0  0  0  0  0  0  0  0  0  0
 -105.3577  539.1912    0.0000 C   0  0  2  0  0  0  0  0  0  0  0  0
 -105.3577  538.3659    0.0000 C   0  0  0  0  0  0  0  0  0  0  0  0
 -106.0721  537.9536    0.0000 S   0  0  0  0  0  0  0  0  0  0  0  0
 -106.0721  539.6036    0.0000 C   0  0  0  0  0  0  0  0  0  0  0  0
 -106.7868  539.1912    0.0000 O   0  0  0  0  0  0  0  0  0  0  0  0
 -106.0721  540.4286    0.0000 O   0  0  0  0  0  0  0  0  0  0  0  0
 -101.0709  539.1912    0.0000 C   0  0  0  0  0  0  0  0  0  0  0  0
 -100.3563  539.6036    0.0000 C   0  0  0  0  0  0  0  0  0  0  0  0
  -99.6418  539.1912    0.0000 C   0  0  0  0  0  0  0  0  0  0  0  0
  -99.6418  538.3659    0.0000 O   0  0  0  0  0  0  0  0  0  0  0  0
  -99.6418  541.6662    0.0000 O   0  0  0  0  0  0  0  0  0  0  0  0
  -98.9274  542.0786    0.0000 C   0  0  2  0  0  0  0  0  0  0  0  0
  -98.9274  542.9038    0.0000 C   0  0  0  0  0  0  0  0  0  0  0  0
  -98.2130  543.3162    0.0000 O   0  0  0  0  0  0  0  0  0  0  0  0
 -101.1956  534.6533    0.0000 C   0  0  0  0  0  0  0  0  0  0  0  0
 -101.9099  534.2409    0.0000 C   0  0  0  0  0  0  0  0  0  0  0  0
 -101.9099  533.4159    0.0000 O   0  0  0  0  0  0  0  0  0  0  0  0
 -102.6244  533.0033    0.0000 C   0  0  0  0  0  0  0  0  0  0  0  0
 -102.6244  532.1783    0.0000 C   0  0  2  0  0  0  0  0  0  0  0  0
 -101.9099  531.7656    0.0000 C   0  0  1  0  0  0  0  0  0  0  0  0
 -101.1956  532.1783    0.0000 O   0  0  0  0  0  0  0  0  0  0  0  0
 -100.4809  531.7656    0.0000 C   0  0  0  0  0  0  0  0  0  0  0  0
  -99.7664  532.1783    0.0000 C   0  0  0  0  0  0  0  0  0  0  0  0
 -100.4809  530.9406    0.0000 O   0  0  0  0  0  0  0  0  0  0  0  0
 -101.9099  530.9406    0.0000 C   0  0  2  0  0  0  0  0  0  0  0  0
 -101.1956  530.5283    0.0000 O   0  0  0  0  0  0  0  0  0  0  0  0
 -101.1956  529.7033    0.0000 C   0  0  0  0  0  0  0  0  0  0  0  0
 -100.4809  529.2906    0.0000 C   0  0  0  0  0  0  0  0  0  0  0  0
 -101.9099  529.2906    0.0000 O   0  0  0  0  0  0  0  0  0  0  0  0
 -102.6244  530.5283    0.0000 C   0  0  1  0  0  0  0  0  0  0  0  0
 -102.6244  529.7033    0.0000 O   0  0  0  0  0  0  0  0  0  0  0  0
 -103.3388  530.9406    0.0000 C   0  0  2  0  0  0  0  0  0  0  0  0
 -104.0535  530.5283    0.0000 C   0  0  0  0  0  0  0  0  0  0  0  0
 -104.0535  529.7033    0.0000 C   0  0  0  0  0  0  0  0  0  0  0  0
 -103.3388  529.2906    0.0000 C   0  0  0  0  0  0  0  0  0  0  0  0
 -103.3388  528.4656    0.0000 O   0  0  0  0  0  0  0  0  0  0  0  0
 -104.7679  529.2906    0.0000 C   0  0  0  0  0  0  0  0  0  0  0  0
 -105.4823  529.7033    0.0000 C   0  0  0  0  0  0  0  0  0  0  0  0
 -106.1967  529.2906    0.0000 O   0  0  0  0  0  0  0  0  0  0  0  0
 -106.1967  528.4656    0.0000 C   0  0  0  0  0  0  0  0  0  0  0  0
 -106.9111  528.0530    0.0000 C   0  0  0  0  0  0  0  0  0  0  0  0
 -105.4823  528.0530    0.0000 O   0  0  0  0  0  0  0  0  0  0  0  0
 -105.4823  530.5283    0.0000 C   0  0  0  0  0  0  0  0  0  0  0  0
 -106.1967  530.9406    0.0000 O   0  0  0  0  0  0  0  0  0  0  0  0
 -106.9111  530.5283    0.0000 C   0  0  0  0  0  0  0  0  0  0  0  0
 -104.7679  530.9406    0.0000 C   0  0  0  0  0  0  0  0  0  0  0  0
 -104.7679  531.7656    0.0000 O   0  0  0  0  0  0  0  0  0  0  0  0
 -105.4823  532.1783    0.0000 C   0  0  0  0  0  0  0  0  0  0  0  0
 -106.1967  531.7656    0.0000 C   0  0  0  0  0  0  0  0  0  0  0  0
 -105.4823  533.0033    0.0000 O   0  0  0  0  0  0  0  0  0  0  0  0
 -103.3388  531.7656    0.0000 O   0  0  0  0  0  0  0  0  0  0  0  0
 -102.6244  534.6533    0.0000 O   0  0  0  0  0  0  0  0  0  0  0  0
 -105.5301  523.2928    0.0000 O   0  0  0  0  0  0  0  0  0  0  0  0
 -104.8158  522.8802    0.0000 C   0  0  0  0  0  0  0  0  0  0  0  0
 -104.8158  522.0552    0.0000 C   0  0  0  0  0  0  0  0  0  0  0  0
 -105.5301  521.6425    0.0000 O   0  0  0  0  0  0  0  0  0  0  0  0
 -104.1011  521.6425    0.0000 C   0  0  0  0  0  0  0  0  0  0  0  0
 -104.1011  520.8175    0.0000 N   0  0  0  0  0  0  0  0  0  0  0  0
 -103.4337  520.3329    0.0000 N   0  0  0  0  0  0  0  0  0  0  0  0
 -103.6887  519.5482    0.0000 C   0  0  0  0  0  0  0  0  0  0  0  0
 -104.5137  519.5482    0.0000 N   0  0  0  0  0  0  0  0  0  0  0  0
 -104.7687  520.3329    0.0000 C   0  0  0  0  0  0  0  0  0  0  0  0
 -103.3866  522.0552    0.0000 C   0  0  0  0  0  0  0  0  0  0  0  0
 -103.3866  522.8802    0.0000 C   0  0  0  0  0  0  0  0  0  0  0  0
 -102.6722  523.2928    0.0000 C   0  0  1  0  0  0  0  0  0  0  0  0
 -101.9578  522.8802    0.0000 C   0  0  1  0  0  0  0  0  0  0  0  0
 -101.9578  522.0552    0.0000 O   0  0  0  0  0  0  0  0  0  0  0  0
 -102.6722  521.6425    0.0000 C   0  0  0  0  0  0  0  0  0  0  0  0
 -102.6722  520.8175    0.0000 O   0  0  0  0  0  0  0  0  0  0  0  0
 -102.6722  524.1178    0.0000 O   0  0  0  0  0  0  0  0  0  0  0  0
 -101.9578  524.5302    0.0000 C   0  0  2  0  0  0  0  0  0  0  0  0
 -101.2434  524.1178    0.0000 C   0  0  1  0  0  0  0  0  0  0  0  0
 -101.2434  523.2928    0.0000 C   0  0  1  0  0  0  0  0  0  0  0  0
 -100.5287  522.8802    0.0000 O   0  0  0  0  0  0  0  0  0  0  0  0
 -100.5287  524.5302    0.0000 O   0  0  0  0  0  0  0  0  0  0  0  0
 -101.9578  525.3552    0.0000 C   0  0  0  0  0  0  0  0  0  0  0  0
 -101.2434  525.7678    0.0000 O   0  0  0  0  0  0  0  0  0  0  0  0
 -104.1011  523.2928    0.0000 C   0  0  0  0  0  0  0  0  0  0  0  0
 -104.1011  524.1178    0.0000 O   0  0  0  0  0  0  0  0  0  0  0  0
 -105.7216  513.2259    0.0000 O   0  0  0  0  0  0  0  0  0  0  0  0
 -105.0072  513.6385    0.0000 C   0  0  0  0  0  0  0  0  0  0  0  0
 -105.0072  514.4635    0.0000 C   0  0  0  0  0  0  0  0  0  0  0  0
 -105.7216  514.8761    0.0000 O   0  0  0  0  0  0  0  0  0  0  0  0
 -106.4360  514.4635    0.0000 C   0  0  0  0  0  0  0  0  0  0  0  0
 -104.2925  514.8761    0.0000 C   0  0  0  0  0  0  0  0  0  0  0  0
 -104.2925  515.7011    0.0000 O   0  0  0  0  0  0  0  0  0  0  0  0
 -103.5781  514.4635    0.0000 C   0  0  0  0  0  0  0  0  0  0  0  0
 -102.8637  514.8761    0.0000 C   0  0  1  0  0  0  0  0  0  0  0  0
 -102.1493  514.4635    0.0000 C   0  0  1  0  0  0  0  0  0  0  0  0
 -102.1493  513.6385    0.0000 O   0  0  0  0  0  0  0  0  0  0  0  0
 -102.8637  513.2259    0.0000 C   0  0  0  0  0  0  0  0  0  0  0  0
 -102.8637  512.4009    0.0000 O   0  0  0  0  0  0  0  0  0  0  0  0
 -102.8637  515.7011    0.0000 O   0  0  0  0  0  0  0  0  0  0  0  0
 -102.1493  516.1135    0.0000 C   0  0  2  0  0  0  0  0  0  0  0  0
 -101.4346  515.7011    0.0000 C   0  0  1  0  0  0  0  0  0  0  0  0
 -101.4346  514.8761    0.0000 C   0  0  1  0  0  0  0  0  0  0  0  0
 -100.7202  514.4635    0.0000 O   0  0  0  0  0  0  0  0  0  0  0  0
 -100.7202  516.1135    0.0000 N   0  0  0  0  0  0  0  0  0  0  0  0
 -100.0058  515.7011    0.0000 C   0  0  0  0  0  0  0  0  0  0  0  0
  -99.2914  516.1135    0.0000 C   0  0  2  0  0  0  0  0  0  0  0  0
  -98.5767  515.7011    0.0000 N   0  0  0  0  0  0  0  0  0  0  0  0
  -97.8622  516.1135    0.0000 C   0  0  0  0  0  0  0  0  0  0  0  0
  -97.1479  515.7011    0.0000 C   0  0  0  0  0  0  0  0  0  0  0  0
  -97.8622  516.9385    0.0000 O   0  0  0  0  0  0  0  0  0  0  0  0
  -99.2914  516.9385    0.0000 C   0  0  0  0  0  0  0  0  0  0  0  0
  -98.5767  517.3511    0.0000 C   0  0  0  0  0  0  0  0  0  0  0  0
 -100.0058  514.8761    0.0000 O   0  0  0  0  0  0  0  0  0  0  0  0
 -102.1493  516.9385    0.0000 C   0  0  0  0  0  0  0  0  0  0  0  0
 -101.4346  517.3511    0.0000 O   0  0  0  0  0  0  0  0  0  0  0  0
 -103.5781  513.6385    0.0000 C   0  0  0  0  0  0  0  0  0  0  0  0
 -104.2925  513.2259    0.0000 C   0  0  0  0  0  0  0  0  0  0  0  0
 -101.8237  606.1797    0.0000 C   0  0  0  0  0  0  0  0  0  0  0  0
 -100.9987  606.1797    0.0000 O   0  0  0  0  0  0  0  0  0  0  0  0
 -100.5862  606.8942    0.0000 C   0  0  0  0  0  0  0  0  0  0  0  0
 -100.9987  607.6086    0.0000 C   0  0  0  0  0  0  0  0  0  0  0  0
 -101.8237  607.6086    0.0000 O   0  0  0  0  0  0  0  0  0  0  0  0
 -102.2362  608.3231    0.0000 C   0  0  0  0  0  0  0  0  0  0  0  0
 -101.8237  609.0376    0.0000 O   0  0  0  0  0  0  0  0  0  0  0  0
 -103.0612  608.3231    0.0000 C   0  0  0  0  0  0  0  0  0  0  0  0
 -103.4737  607.6086    0.0000 C   0  0  0  0  0  0  0  0  0  0  0  0
 -104.2987  607.6086    0.0000 C   0  0  0  0  0  0  0  0  0  0  0  0
 -104.7112  608.3231    0.0000 C   0  0  0  0  0  0  0  0  0  0  0  0
 -104.2987  609.0376    0.0000 C   0  0  0  0  0  0  0  0  0  0  0  0
 -103.4737  609.0376    0.0000 C   0  0  0  0  0  0  0  0  0  0  0  0
 -104.7112  609.7521    0.0000 N   0  3  0  0  0  0  0  0  0  0  0  0
 -105.5362  609.7521    0.0000 O   0  5  0  0  0  0  0  0  0  0  0  0
 -104.2987  610.4666    0.0000 O   0  0  0  0  0  0  0  0  0  0  0  0
 -104.7112  606.8942    0.0000 N   0  3  0  0  0  0  0  0  0  0  0  0
 -105.5362  606.8942    0.0000 O   0  5  0  0  0  0  0  0  0  0  0  0
 -104.2987  606.1797    0.0000 O   0  0  0  0  0  0  0  0  0  0  0  0
 -100.5862  608.3231    0.0000 C   0  0  0  0  0  0  0  0  0  0  0  0
  -99.7612  608.3231    0.0000 C   0  0  0  0  0  0  0  0  0  0  0  0
  -99.3487  609.0376    0.0000 C   0  0  0  0  0  0  0  0  0  0  0  0
  -99.7612  609.7521    0.0000 O   0  0  0  0  0  0  0  0  0  0  0  0
  -98.5237  609.0376    0.0000 O   0  0  0  0  0  0  0  0  0  0  0  0
  -98.1112  608.3231    0.0000 C   0  0  2  0  0  0  0  0  0  0  0  0
  -97.2862  608.3231    0.0000 C   0  0  1  0  0  0  0  0  0  0  0  0
  -96.8737  609.0376    0.0000 O   0  0  0  0  0  0  0  0  0  0  0  0
  -96.8737  607.6086    0.0000 C   0  0  2  0  0  0  0  0  0  0  0  0
  -96.0487  607.6086    0.0000 O   0  0  0  0  0  0  0  0  0  0  0  0
  -97.2862  606.8942    0.0000 C   0  0  1  0  0  0  0  0  0  0  0  0
  -96.8737  606.1797    0.0000 C   0  0  0  0  0  0  0  0  0  0  0  0
  -97.2862  605.4652    0.0000 O   0  0  0  0  0  0  0  0  0  0  0  0
  -98.1112  606.8942    0.0000 O   0  0  0  0  0  0  0  0  0  0  0  0
  -98.5237  607.6086    0.0000 C   0  0  1  0  0  0  0  0  0  0  0  0
  -99.3487  607.6086    0.0000 C   0  0  0  0  0  0  0  0  0  0  0  0
  -99.7612  606.8942    0.0000 C   0  0  0  0  0  0  0  0  0  0  0  0
  -99.3487  606.1797    0.0000 O   0  0  0  0  0  0  0  0  0  0  0  0
  -99.7612  605.4652    0.0000 C   0  0  0  0  0  0  0  0  0  0  0  0
  -99.3487  604.7508    0.0000 C   0  0  0  0  0  0  0  0  0  0  0  0
 -100.5862  605.4652    0.0000 O   0  0  0  0  0  0  0  0  0  0  0  0
  -98.5237  603.3219    0.0000 C   0  0  0  0  0  0  0  0  0  0  0  0
  -99.3487  603.3219    0.0000 C   0  0  0  0  0  0  0  0  0  0  0  0
  -99.7612  604.0363    0.0000 C   0  0  0  0  0  0  0  0  0  0  0  0
  -98.5237  604.7508    0.0000 C   0  0  0  0  0  0  0  0  0  0  0  0
  -98.1112  604.0363    0.0000 C   0  0  0  0  0  0  0  0  0  0  0  0
  -97.2862  604.0363    0.0000 N   0  3  0  0  0  0  0  0  0  0  0  0
  -96.8737  604.7508    0.0000 O   0  5  0  0  0  0  0  0  0  0  0  0
  -96.8737  603.3219    0.0000 O   0  0  0  0  0  0  0  0  0  0  0  0
  -99.7612  602.6074    0.0000 N   0  3  0  0  0  0  0  0  0  0  0  0
  -99.3487  601.8929    0.0000 O   0  5  0  0  0  0  0  0  0  0  0  0
 -100.5862  602.6074    0.0000 O   0  0  0  0  0  0  0  0  0  0  0  0
  1  2  1  0  0  0  0
  2  3  1  0  0  0  0
  3  4  2  0  0  0  0
  4  5  1  0  0  0  0
  5  6  1  0  0  0  0
  6  7  2  0  0  0  0
  6  8  1  0  0  0  0
  8  9  2  0  0  0  0
  9 10  1  0  0  0  0
 10 11  2  0  0  0  0
 11 12  1  0  0  0  0
 12 13  2  0  0  0  0
  8 13  1  0  0  0  0
 12 14  1  0  0  0  0
 14 15  1  0  0  0  0
 14 16  2  0  0  0  0
 10 17  1  0  0  0  0
 17 18  1  0  0  0  0
 17 19  2  0  0  0  0
  4 20  1  0  0  0  0
 20 21  2  0  0  0  0
 21 22  1  0  0  0  0
 22 23  2  0  0  0  0
 22 24  1  0  0  0  0
 25 24  1  1  0  0  0
 25 26  1  0  0  0  0
 26 27  1  6  0  0  0
 26 28  1  0  0  0  0
 28 29  1  1  0  0  0
 28 30  1  0  0  0  0
 30 31  1  6  0  0  0
 31 32  1  0  0  0  0
 30 33  1  0  0  0  0
 34 33  1  6  0  0  0
 25 34  1  0  0  0  0
 34 35  1  0  0  0  0
 21 35  1  0  0  0  0
 35 36  2  0  0  0  0
  3 36  1  0  0  0  0
 36 37  1  0  0  0  0
 38 39  1  0  0  0  0
 39 40  1  0  0  0  0
 40 41  2  0  0  0  0
 41 42  1  0  0  0  0
 42 43  2  0  0  0  0
 43 44  1  0  0  0  0
 44 45  2  0  0  0  0
 40 45  1  0  0  0  0
 45 46  1  0  0  0  0
 47 44  1  0  0  0  0
 47 48  1  0  0  0  0
 48 49  1  0  0  0  0
 49 50  1  0  0  0  0
 50 51  1  0  0  0  0
 51 52  1  0  0  0  0
 47 52  1  6  0  0  0
 51 53  1  6  0  0  0
 53 54  1  0  0  0  0
 50 55  1  1  0  0  0
 49 56  1  6  0  0  0
 48 57  1  1  0  0  0
 57 58  1  0  0  0  0
 43 58  1  0  0  0  0
 58 59  2  0  0  0  0
 41 60  1  0  0  0  0
 62 61  1  6  0  0  0
 62 63  1  0  0  0  0
 63 64  1  1  0  0  0
 63 65  1  0  0  0  0
 65 66  1  6  0  0  0
 66 67  1  0  0  0  0
 65 68  1  0  0  0  0
 69 68  1  6  0  0  0
 69 70  1  0  0  0  0
 62 70  1  0  0  0  0
 70 71  1  1  0  0  0
 71 72  1  0  0  0  0
 72 73  1  0  0  0  0
 73 74  2  0  0  0  0
 69 74  1  0  0  0  0
 74 75  1  0  0  0  0
 75 76  1  0  0  0  0
 75 77  2  0  0  0  0
 77 78  1  0  0  0  0
 78 79  1  0  0  0  0
 77 80  1  0  0  0  0
 80 81  1  0  0  0  0
 80 82  2  0  0  0  0
 73 82  1  0  0  0  0
 82 83  1  0  0  0  0
 83 84  1  0  0  0  0
 84 85  2  0  0  0  0
 85 86  1  0  0  0  0
 86 87  2  0  0  0  0
 83 87  1  0  0  0  0
 72 88  2  0  0  0  0
 90 89  1  1  0  0  0
 90 91  1  0  0  0  0
 91 92  1  1  0  0  0
 91 93  1  0  0  0  0
 93 94  1  6  0  0  0
 93 95  1  0  0  0  0
 95 96  1  0  0  0  0
 96 97  2  0  0  0  0
 97 98  1  0  0  0  0
 98 99  1  0  0  0  0
 99100  1  0  0  0  0
100101  2  0  0  0  0
101102  1  0  0  0  0
102103  1  0  0  0  0
103104  2  0  0  0  0
100104  1  0  0  0  0
 97105  1  0  0  0  0
105106  1  0  0  0  0
106107  1  0  0  0  0
105108  2  0  0  0  0
108109  1  0  0  0  0
109110  1  0  0  0  0
110111  1  0  0  0  0
111112  2  0  0  0  0
112113  1  0  0  0  0
113114  1  0  0  0  0
114115  2  0  0  0  0
111115  1  0  0  0  0
108116  1  0  0  0  0
116117  2  0  0  0  0
 96117  1  0  0  0  0
117118  1  0  0  0  0
 94118  1  0  0  0  0
118119  2  0  0  0  0
 95120  1  6  0  0  0
 90121  1  0  0  0  0
121120  1  0  0  0  0
121122  1  6  0  0  0
122123  1  0  0  0  0
125124  1  1  0  0  0
125126  1  0  0  0  0
126127  1  1  0  0  0
126128  1  0  0  0  0
128129  1  6  0  0  0
128130  1  0  0  0  0
130131  1  0  0  0  0
131132  1  0  0  0  0
132133  1  0  0  0  0
132134  2  0  0  0  0
134135  1  0  0  0  0
135136  1  0  0  0  0
131137  2  0  0  0  0
137138  1  0  0  0  0
138139  1  0  0  0  0
139140  2  0  0  0  0
138141  2  0  0  0  0
134141  1  0  0  0  0
141142  1  0  0  0  0
137143  1  0  0  0  0
129143  1  0  0  0  0
143144  2  0  0  0  0
130145  1  6  0  0  0
125146  1  0  0  0  0
146145  1  0  0  0  0
146147  1  6  0  0  0
147148  1  0  0  0  0
150149  1  1  0  0  0
150151  1  0  0  0  0
151152  1  1  0  0  0
151153  1  0  0  0  0
153154  1  6  0  0  0
153155  1  0  0  0  0
155156  1  0  0  0  0
156157  2  0  0  0  0
157158  1  0  0  0  0
157159  1  0  0  0  0
159160  1  0  0  0  0
160161  1  0  0  0  0
159162  2  0  0  0  0
162163  1  0  0  0  0
162164  1  0  0  0  0
164165  1  0  0  0  0
165166  1  0  0  0  0
166167  1  0  0  0  0
167168  1  0  0  0  0
168169  1  0  0  0  0
169170  1  0  0  0  0
170171  1  0  0  0  0
166171  1  0  0  0  0
164172  2  0  0  0  0
156172  1  0  0  0  0
172173  1  0  0  0  0
154173  1  0  0  0  0
173174  2  0  0  0  0
155175  1  6  0  0  0
150176  1  0  0  0  0
176175  1  0  0  0  0
176177  1  6  0  0  0
177178  1  0  0  0  0
180179  1  1  0  0  0
180181  1  0  0  0  0
181182  1  1  0  0  0
181183  1  0  0  0  0
183184  1  6  0  0  0
183185  1  0  0  0  0
185186  1  0  0  0  0
186187  2  0  0  0  0
187188  1  0  0  0  0
187189  1  0  0  0  0
189190  1  0  0  0  0
190191  1  0  0  0  0
189192  2  0  0  0  0
192193  1  0  0  0  0
192194  1  0  0  0  0
194195  1  0  0  0  0
195196  2  0  0  0  0
196197  1  0  0  0  0
197198  1  0  0  0  0
198199  1  0  0  0  0
198200  2  0  0  0  0
194201  2  0  0  0  0
186201  1  0  0  0  0
201202  1  0  0  0  0
184202  1  0  0  0  0
202203  2  0  0  0  0
185204  1  6  0  0  0
180205  1  0  0  0  0
205204  1  0  0  0  0
205206  1  6  0  0  0
206207  1  0  0  0  0
209208  1  6  0  0  0
209210  1  0  0  0  0
210211  1  1  0  0  0
210212  1  0  0  0  0
212213  1  6  0  0  0
212214  1  0  0  0  0
214215  1  0  0  0  0
215216  2  0  0  0  0
216217  1  0  0  0  0
217218  1  0  0  0  0
218219  1  0  0  0  0
219220  1  0  0  0  0
220221  1  0  0  0  0
220222  2  0  0  0  0
223219  1  6  0  0  0
223224  1  0  0  0  0
224225  1  0  0  0  0
223226  1  0  0  0  0
226227  1  0  0  0  0
226228  2  0  0  0  0
218229  2  0  0  0  0
216230  1  0  0  0  0
230231  1  0  0  0  0
231232  1  0  0  0  0
230233  2  0  0  0  0
233234  1  0  0  0  0
234235  1  0  0  0  0
235236  1  0  0  0  0
236237  1  0  0  0  0
237238  1  0  0  0  0
238239  1  0  0  0  0
238240  2  0  0  0  0
241237  1  1  0  0  0
241242  1  0  0  0  0
242243  1  0  0  0  0
241244  1  0  0  0  0
244245  1  0  0  0  0
244246  2  0  0  0  0
235247  2  0  0  0  0
233248  1  0  0  0  0
248249  2  0  0  0  0
215249  1  0  0  0  0
249250  1  0  0  0  0
213250  1  0  0  0  0
250251  2  0  0  0  0
214252  1  6  0  0  0
209253  1  0  0  0  0
253252  1  0  0  0  0
253254  1  1  0  0  0
254255  1  0  0  0  0
257256  1  1  0  0  0
257258  1  0  0  0  0
258259  1  1  0  0  0
258260  1  0  0  0  0
260261  1  6  0  0  0
260262  1  0  0  0  0
262263  1  0  0  0  0
263264  2  0  0  0  0
264265  1  0  0  0  0
265266  1  0  0  0  0
266267  1  0  0  0  0
267268  1  0  0  0  0
269268  1  1  0  0  0
269270  1  0  0  0  0
270271  1  0  0  0  0
269272  1  0  0  0  0
272273  1  0  0  0  0
272274  2  0  0  0  0
268275  1  0  0  0  0
275276  1  0  0  0  0
275277  2  0  0  0  0
264278  1  0  0  0  0
278279  1  0  0  0  0
279280  1  0  0  0  0
278281  2  0  0  0  0
281282  1  0  0  0  0
282283  1  0  0  0  0
283284  1  0  0  0  0
284285  1  0  0  0  0
285286  1  0  0  0  0
286287  1  0  0  0  0
286288  2  0  0  0  0
289285  1  6  0  0  0
289290  1  0  0  0  0
290291  1  0  0  0  0
289292  1  0  0  0  0
292293  1  0  0  0  0
292294  2  0  0  0  0
281295  1  0  0  0  0
295296  2  0  0  0  0
263296  1  0  0  0  0
296297  1  0  0  0  0
261297  1  0  0  0  0
297298  2  0  0  0  0
262299  1  6  0  0  0
257300  1  0  0  0  0
300299  1  0  0  0  0
300301  1  6  0  0  0
301302  1  0  0  0  0
303304  1  0  0  0  0
304305  1  0  0  0  0
305306  1  0  0  0  0
307306  1  6  0  0  0
307308  1  0  0  0  0
308309  1  1  0  0  0
309310  1  0  0  0  0
310311  1  0  0  0  0
310312  2  0  0  0  0
308313  1  0  0  0  0
313314  1  6  0  0  0
314315  1  0  0  0  0
315316  1  0  0  0  0
315317  2  0  0  0  0
313318  1  0  0  0  0
318319  1  1  0  0  0
318320  1  0  0  0  0
320321  1  0  0  0  0
321322  2  0  0  0  0
322323  1  0  0  0  0
319323  1  0  0  0  0
323324  2  0  0  0  0
322325  1  0  0  0  0
325326  2  0  0  0  0
326327  1  0  0  0  0
327328  1  0  0  0  0
328329  1  0  0  0  0
328330  2  0  0  0  0
326331  1  0  0  0  0
331332  1  0  0  0  0
332333  1  0  0  0  0
331334  2  0  0  0  0
321334  1  0  0  0  0
334335  1  0  0  0  0
335336  1  0  0  0  0
336337  1  0  0  0  0
336338  2  0  0  0  0
320339  1  6  0  0  0
307339  1  0  0  0  0
304340  2  0  0  0  0
341342  1  0  0  0  0
342343  2  0  0  0  0
343344  1  0  0  0  0
343345  1  0  0  0  0
345346  1  0  0  0  0
346347  1  0  0  0  0
347348  2  0  0  0  0
348349  1  0  0  0  0
349350  2  0  0  0  0
346350  1  0  0  0  0
345351  2  0  0  0  0
351352  1  0  0  0  0
353352  1  0  0  0  0
353354  1  0  0  0  0
354355  1  6  0  0  0
355356  1  0  0  0  0
351356  1  0  0  0  0
356357  2  0  0  0  0
353358  1  6  0  0  0
359358  1  0  0  0  0
359360  1  0  0  0  0
360361  1  0  0  0  0
354361  1  0  0  0  0
361362  1  1  0  0  0
360363  1  6  0  0  0
359364  1  1  0  0  0
364365  1  0  0  0  0
352366  2  0  0  0  0
342366  1  0  0  0  0
366367  1  0  0  0  0
368369  1  0  0  0  0
369370  2  0  0  0  0
370371  1  0  0  0  0
371372  1  0  0  0  0
370373  1  0  0  0  0
373374  1  0  0  0  0
373375  2  0  0  0  0
376375  1  0  0  0  0
376377  1  0  0  0  0
377378  1  6  0  0  0
378379  1  0  0  0  0
379380  2  0  0  0  0
376381  1  6  0  0  0
382381  1  0  0  0  0
382383  1  0  0  0  0
383384  1  0  0  0  0
377384  1  0  0  0  0
384385  1  1  0  0  0
383386  1  6  0  0  0
386387  1  0  0  0  0
388387  1  0  0  0  0
388389  1  1  0  0  0
389390  1  0  0  0  0
390391  1  0  0  0  0
390392  2  0  0  0  0
388393  1  0  0  0  0
393394  1  0  0  0  0
387395  2  0  0  0  0
382396  1  1  0  0  0
396397  1  0  0  0  0
375398  1  0  0  0  0
379398  1  0  0  0  0
398399  2  0  0  0  0
369399  1  0  0  0  0
400401  1  0  0  0  0
401402  1  0  0  0  0
402403  2  0  0  0  0
403404  1  0  0  0  0
404405  1  0  0  0  0
405406  2  0  0  0  0
405407  1  0  0  0  0
407408  2  0  0  0  0
408409  1  0  0  0  0
409410  2  0  0  0  0
410411  1  0  0  0  0
411412  2  0  0  0  0
407412  1  0  0  0  0
411413  1  0  0  0  0
413414  1  0  0  0  0
413415  2  0  0  0  0
409416  1  0  0  0  0
416417  1  0  0  0  0
416418  2  0  0  0  0
403419  1  0  0  0  0
419420  2  0  0  0  0
420421  1  0  0  0  0
421422  2  0  0  0  0
421423  1  0  0  0  0
424423  1  6  0  0  0
424425  1  0  0  0  0
425426  1  1  0  0  0
425427  1  0  0  0  0
427428  1  6  0  0  0
427429  1  0  0  0  0
429430  1  1  0  0  0
430431  1  0  0  0  0
429432  1  0  0  0  0
433432  1  1  0  0  0
424433  1  0  0  0  0
433434  1  0  0  0  0
420434  1  0  0  0  0
434435  2  0  0  0  0
402435  1  0  0  0  0
435436  1  0  0  0  0
436437  1  0  0  0  0
437438  1  0  0  0  0
437439  2  0  0  0  0
440441  1  0  0  0  0
441442  2  0  0  0  0
443444  1  0  0  0  0
440444  2  0  0  0  0
442438  1  0  0  0  0
438443  2  0  0  0  0
445446  1  0  0  0  0
445447  2  0  0  0  0
445444  1  0  0  0  0
441448  1  0  0  0  0
448449  1  0  0  0  0
448450  2  0  0  0  0
M  CHG  8  14   1  15  -1  17   1  18  -1 413   1 414  -1 416   1 417  -1
M  CHG  4 445   1 446  -1 448   1 449  -1
M  END
